/*---------------------------------------------------------------------------*\
| =========                 |                                                 |
| \\      /  F ield         | OpenFOAM: The Open Source CFD Toolbox           |
|  \\    /   O peration     | Version:  v2012                                 |
|   \\  /    A nd           | Website:  www.openfoam.com                      |
|    \\/     M anipulation  |                                                 |
\*---------------------------------------------------------------------------*/
Build  : _7bdb509494-20201222 OPENFOAM=2012
Arch   : "LSB;label=32;scalar=64"
Exec   : moveDynamicMesh -noFunctionObjects
Date   : Jul 01 2021
Time   : 21:06:59
Host   : s319791
PID    : 32188
I/O    : uncollated
Case   : /home/s319791/IRP-local/solverDevelopment/DyMcases_pimpleFoam/NACA_0012_transient
nProcs : 1
trapFpe: Floating point exception trapping enabled (FOAM_SIGFPE).
fileModificationChecking : Monitoring run-time modified files using timeStampMaster (fileModificationSkew 5, maxFileModificationPolls 20)
allowSystemOperations : Allowing user-supplied system call operations

// * * * * * * * * * * * * * * * * * * * * * * * * * * * * * * * * * * * * * //
Create time

Create mesh for time = 0

Selecting dynamicFvMesh dynamicMotionSolverFvMesh
Selecting motion solver: displacementLaplacian
Applying solid body motion to entire mesh
Using #calc at line 32 in file "/home/s319791/IRP-local/solverDevelopment/DyMcases_pimpleFoam/NACA_0012_transient/0/pointDisplacement.boundaryField.airfoil"
Using #codeStream with "/home/s319791/IRP-local/solverDevelopment/DyMcases_pimpleFoam/NACA_0012_transient/dynamicCode/platforms/linux64GccDPInt32Opt/lib/libcodeStream_4ee72f63d541d0172a2671369d09e96a111fcc3d.so"
READCONTROLS FUNCTION PIDCONTROLDICT:

27
(
PIDcontroller
{
type
PID
;
P
0.01
;
I
0
;
D
0
;
actuatorModel
{
var1
5
;
var2
12
;
var3
3.5
;
}
}
)

Selecting motion diffusion: inverseDistance
Selecting patchDistMethod meshWave

PIMPLE: no residual control data found. Calculations will employ 2 corrector loops

Time = 0.001
PIMPLE: iteration 1
angle antes: 0
oldOmega        2;
omega           2.0035;
error           0.35;
errorIntegral   0;
angle           0.0020035;
DICPCG:  Solving for cellDisplacementx, Initial residual = 1, Final residual = 2.16269e-14, No Iterations 1
DICPCG:  Solving for cellDisplacementy, Initial residual = 1, Final residual = 6.55523e-14, No Iterations 1
PIMPLE: iteration 2
    Point usage OK.
    Upper triangular ordering OK.
    Topological cell zip-up check OK.
    Face vertices OK.
    Face-face connectivity OK.
    Mesh topology OK.
    Boundary openness (-8.90909e-19 -1.78182e-18 -1.08621e-15) OK.
 ***High aspect ratio cells found, Max aspect ratio: 8955.09, number of cells 1641
    Minimum face area = 6.03696e-08. Maximum face area = 1.17284.  Face area magnitudes OK.
    Min volume = 6.03696e-08. Max volume = 0.498947.  Total volume = 456.745.  Cell volumes OK.
    Mesh non-orthogonality Max: 43.1015 average: 4.21991
    Non-orthogonality check OK.
    Face pyramids OK.
    Max skewness = 2.96892 OK.
    Failed 1 mesh geometry checks.
    Failed 1 mesh checks.
ExecutionTime = 0.22 s  ClockTime = 1 s

Time = 0.002
PIMPLE: iteration 1
angle antes: 0.0020035
oldOmega        2.0035;
omega           2.00698;
error           0.347996;
errorIntegral   0;
angle           0.00401048;
DICPCG:  Solving for cellDisplacementx, Initial residual = 0.333905, Final residual = 8.87008e-15, No Iterations 1
DICPCG:  Solving for cellDisplacementy, Initial residual = 0.3425, Final residual = 3.85303e-14, No Iterations 1
PIMPLE: iteration 2
    Point usage OK.
    Upper triangular ordering OK.
    Topological cell zip-up check OK.
    Face vertices OK.
    Face-face connectivity OK.
    Mesh topology OK.
    Boundary openness (-8.90909e-19 0 -1.55665e-15) OK.
 ***High aspect ratio cells found, Max aspect ratio: 8940.37, number of cells 1664
    Minimum face area = 6.03981e-08. Maximum face area = 1.17284.  Face area magnitudes OK.
    Min volume = 6.03981e-08. Max volume = 0.498947.  Total volume = 456.745.  Cell volumes OK.
    Mesh non-orthogonality Max: 55.4911 average: 4.75012
    Non-orthogonality check OK.
    Face pyramids OK.
    Max skewness = 3.92402 OK.
    Failed 1 mesh geometry checks.
    Failed 1 mesh checks.
ExecutionTime = 0.31 s  ClockTime = 1 s

Time = 0.003
PIMPLE: iteration 1
angle antes: 0.00401048
oldOmega        2.00698;
omega           2.01044;
error           0.34599;
errorIntegral   0;
angle           0.00602092;
DICPCG:  Solving for cellDisplacementx, Initial residual = 0.200695, Final residual = 6.13541e-15, No Iterations 1
DICPCG:  Solving for cellDisplacementy, Initial residual = 0.207922, Final residual = 2.79247e-14, No Iterations 1
PIMPLE: iteration 2
    Point usage OK.
    Upper triangular ordering OK.
    Topological cell zip-up check OK.
    Face vertices OK.
    Face-face connectivity OK.
    Mesh topology OK.
    Boundary openness (-8.90909e-19 0 3.16265e-15) OK.
 ***High aspect ratio cells found, Max aspect ratio: 9166.47, number of cells 1686
    Minimum face area = 5.41388e-08. Maximum face area = 1.17284.  Face area magnitudes OK.
    Min volume = 5.41388e-08. Max volume = 0.498947.  Total volume = 456.745.  Cell volumes OK.
    Mesh non-orthogonality Max: 63.1538 average: 5.38807
    Non-orthogonality check OK.
    Face pyramids OK.
 ***Max skewness = 4.68511, 1 highly skew faces detected which may impair the quality of the results
    Failed 2 mesh geometry checks.
    Failed 1 mesh checks.
ExecutionTime = 0.41 s  ClockTime = 1 s

Time = 0.004
PIMPLE: iteration 1
angle antes: 0.00602092
oldOmega        2.01044;
omega           2.01388;
error           0.343979;
errorIntegral   0;
angle           0.0080348;
DICPCG:  Solving for cellDisplacementx, Initial residual = 0.143645, Final residual = 4.80067e-15, No Iterations 1
DICPCG:  Solving for cellDisplacementy, Initial residual = 0.149745, Final residual = 2.38175e-14, No Iterations 1
PIMPLE: iteration 2
    Point usage OK.
    Upper triangular ordering OK.
    Topological cell zip-up check OK.
    Face vertices OK.
    Face-face connectivity OK.
    Mesh topology OK.
    Boundary openness (-8.90909e-19 0 -2.44492e-15) OK.
 ***High aspect ratio cells found, Max aspect ratio: 1.99487e+96, number of cells 1714
    Minimum face area = 1.93307e-09. Maximum face area = 1.17284.  Face area magnitudes OK.
 ***Zero or negative cell volume detected.  Minimum negative volume: -2.82186e-09, Number of negative volume cells: 2
    Mesh non-orthogonality Max: 95.7391 average: 6.48572
   *Number of severely non-orthogonal (> 70 degrees) faces: 4.
 ***Number of non-orthogonality errors: 1.
 ***Error in face pyramids: 10 faces are incorrectly oriented.
 ***Max skewness = 5.37202, 2 highly skew faces detected which may impair the quality of the results
    Failed 5 mesh geometry checks.
    Failed 1 mesh checks.
ExecutionTime = 0.5 s  ClockTime = 1 s

Time = 0.005
PIMPLE: iteration 1
angle antes: 0.0080348
oldOmega        2.01388;
omega           2.0173;
error           0.341965;
errorIntegral   0;
angle           0.0100521;
DICPCG:  Solving for cellDisplacementx, Initial residual = 0.111969, Final residual = 3.88709e-15, No Iterations 1
DICPCG:  Solving for cellDisplacementy, Initial residual = 0.117232, Final residual = 2.0547e-14, No Iterations 1
PIMPLE: iteration 2
    Point usage OK.
    Upper triangular ordering OK.
    Topological cell zip-up check OK.
    Face vertices OK.
    Face-face connectivity OK.
    Mesh topology OK.
    Boundary openness (-8.90909e-19 0 6.65042e-16) OK.
 ***High aspect ratio cells found, Max aspect ratio: 4.15025e+96, number of cells 1740
    Minimum face area = 5.06943e-09. Maximum face area = 1.17284.  Face area magnitudes OK.
 ***Zero or negative cell volume detected.  Minimum negative volume: -6.32509e-08, Number of negative volume cells: 20
    Mesh non-orthogonality Max: 170.266 average: 7.99853
   *Number of severely non-orthogonal (> 70 degrees) faces: 15.
 ***Number of non-orthogonality errors: 20.
 ***Error in face pyramids: 100 faces are incorrectly oriented.
 ***Max skewness = 12.2309, 6 highly skew faces detected which may impair the quality of the results
    Failed 5 mesh geometry checks.
    Failed 1 mesh checks.
ExecutionTime = 0.6 s  ClockTime = 1 s

Time = 0.006
PIMPLE: iteration 1
angle antes: 0.0100521
oldOmega        2.0173;
omega           2.0207;
error           0.339948;
errorIntegral   0;
angle           0.0120728;
DICPCG:  Solving for cellDisplacementx, Initial residual = 0.0918418, Final residual = 3.47206e-15, No Iterations 1
DICPCG:  Solving for cellDisplacementy, Initial residual = 0.09646, Final residual = 1.93922e-14, No Iterations 1
PIMPLE: iteration 2
    Point usage OK.
    Upper triangular ordering OK.
    Topological cell zip-up check OK.
    Face vertices OK.
    Face-face connectivity OK.
    Mesh topology OK.
    Boundary openness (-8.90909e-19 0 -7.5977e-16) OK.
 ***High aspect ratio cells found, Max aspect ratio: 3.80121e+96, number of cells 1757
    Minimum face area = 6.30735e-10. Maximum face area = 1.17284.  Face area magnitudes OK.
 ***Zero or negative cell volume detected.  Minimum negative volume: -9.1528e-08, Number of negative volume cells: 24
    Mesh non-orthogonality Max: 175.113 average: 9.50547
   *Number of severely non-orthogonal (> 70 degrees) faces: 52.
 ***Number of non-orthogonality errors: 23.
 ***Error in face pyramids: 123 faces are incorrectly oriented.
 ***Max skewness = 7.10745, 9 highly skew faces detected which may impair the quality of the results
    Failed 5 mesh geometry checks.
    Failed 1 mesh checks.
ExecutionTime = 0.7 s  ClockTime = 1 s

Time = 0.007
PIMPLE: iteration 1
angle antes: 0.0120728
oldOmega        2.0207;
omega           2.02408;
error           0.337927;
errorIntegral   0;
angle           0.0140969;
DICPCG:  Solving for cellDisplacementx, Initial residual = 0.0779322, Final residual = 3.39983e-15, No Iterations 1
DICPCG:  Solving for cellDisplacementy, Initial residual = 0.082016, Final residual = 2.13145e-14, No Iterations 1
PIMPLE: iteration 2
    Point usage OK.
    Upper triangular ordering OK.
    Topological cell zip-up check OK.
    Face vertices OK.
    Face-face connectivity OK.
    Mesh topology OK.
    Boundary openness (-8.90909e-19 0 7.32708e-16) OK.
 ***High aspect ratio cells found, Max aspect ratio: 6.48981e+96, number of cells 1771
    Minimum face area = 2.65932e-10. Maximum face area = 1.17284.  Face area magnitudes OK.
 ***Zero or negative cell volume detected.  Minimum negative volume: -5.11604e-07, Number of negative volume cells: 57
    Mesh non-orthogonality Max: 179.967 average: 11.2783
   *Number of severely non-orthogonal (> 70 degrees) faces: 51.
 ***Number of non-orthogonality errors: 83.
 ***Error in face pyramids: 310 faces are incorrectly oriented.
 ***Max skewness = 44.2198, 15 highly skew faces detected which may impair the quality of the results
    Failed 5 mesh geometry checks.
    Failed 1 mesh checks.
ExecutionTime = 0.8 s  ClockTime = 1 s

Time = 0.008
PIMPLE: iteration 1
angle antes: 0.0140969
oldOmega        2.02408;
omega           2.02744;
error           0.335903;
errorIntegral   0;
angle           0.0161243;
DICPCG:  Solving for cellDisplacementx, Initial residual = 0.0679177, Final residual = 1.2417e-14, No Iterations 1
DICPCG:  Solving for cellDisplacementy, Initial residual = 0.071375, Final residual = 2.20246e-13, No Iterations 1
PIMPLE: iteration 2
    Point usage OK.
    Upper triangular ordering OK.
    Topological cell zip-up check OK.
    Face vertices OK.
    Face-face connectivity OK.
    Mesh topology OK.
    Boundary openness (-8.90909e-19 0 -2.46906e-16) OK.
 ***High aspect ratio cells found, Max aspect ratio: 1.52884e+97, number of cells 1794
    Minimum face area = 1.27898e-09. Maximum face area = 1.17284.  Face area magnitudes OK.
 ***Zero or negative cell volume detected.  Minimum negative volume: -1.26543e-06, Number of negative volume cells: 75
    Mesh non-orthogonality Max: 176.901 average: 12.5587
   *Number of severely non-orthogonal (> 70 degrees) faces: 35.
 ***Number of non-orthogonality errors: 133.
 ***Error in face pyramids: 418 faces are incorrectly oriented.
 ***Max skewness = 49.9843, 13 highly skew faces detected which may impair the quality of the results
    Failed 5 mesh geometry checks.
    Failed 1 mesh checks.
ExecutionTime = 0.89 s  ClockTime = 1 s

Time = 0.009
PIMPLE: iteration 1
angle antes: 0.0161243
oldOmega        2.02744;
omega           2.03078;
error           0.333876;
errorIntegral   0;
angle           0.0181551;
DICPCG:  Solving for cellDisplacementx, Initial residual = 0.060046, Final residual = 8.9303e-15, No Iterations 1
DICPCG:  Solving for cellDisplacementy, Initial residual = 0.0632856, Final residual = 1.15346e-13, No Iterations 1
PIMPLE: iteration 2
    Point usage OK.
    Upper triangular ordering OK.
    Topological cell zip-up check OK.
    Face vertices OK.
    Face-face connectivity OK.
    Mesh topology OK.
    Boundary openness (-8.90909e-19 0 1.55045e-15) OK.
 ***High aspect ratio cells found, Max aspect ratio: 1.27191e+97, number of cells 1815
    Minimum face area = 2.36841e-09. Maximum face area = 1.17284.  Face area magnitudes OK.
 ***Zero or negative cell volume detected.  Minimum negative volume: -1.29464e-06, Number of negative volume cells: 102
    Mesh non-orthogonality Max: 178.648 average: 14.1777
   *Number of severely non-orthogonal (> 70 degrees) faces: 53.
 ***Number of non-orthogonality errors: 177.
 ***Error in face pyramids: 562 faces are incorrectly oriented.
 ***Max skewness = 106.515, 23 highly skew faces detected which may impair the quality of the results
    Failed 5 mesh geometry checks.
    Failed 1 mesh checks.
ExecutionTime = 0.99 s  ClockTime = 1 s

Time = 0.01
PIMPLE: iteration 1
angle antes: 0.0181551
oldOmega        2.03078;
omega           2.03409;
error           0.331845;
errorIntegral   0;
angle           0.0201892;
DICPCG:  Solving for cellDisplacementx, Initial residual = 0.0546931, Final residual = 1.91358e-14, No Iterations 1
DICPCG:  Solving for cellDisplacementy, Initial residual = 0.056812, Final residual = 1.97828e-13, No Iterations 1
PIMPLE: iteration 2
    Point usage OK.
    Upper triangular ordering OK.
    Topological cell zip-up check OK.
    Face vertices OK.
    Face-face connectivity OK.
    Mesh topology OK.
    Boundary openness (-8.90908e-19 0 1.07805e-15) OK.
 ***High aspect ratio cells found, Max aspect ratio: 1.57806e+97, number of cells 1829
    Minimum face area = 1.4537e-10. Maximum face area = 1.17284.  Face area magnitudes OK.
 ***Zero or negative cell volume detected.  Minimum negative volume: -1.74153e-06, Number of negative volume cells: 125
    Mesh non-orthogonality Max: 179.958 average: 14.9413
   *Number of severely non-orthogonal (> 70 degrees) faces: 50.
 ***Number of non-orthogonality errors: 214.
 ***Error in face pyramids: 679 faces are incorrectly oriented.
 ***Max skewness = 1214.14, 24 highly skew faces detected which may impair the quality of the results
    Failed 5 mesh geometry checks.
    Failed 1 mesh checks.
ExecutionTime = 1.13 s  ClockTime = 2 s

Time = 0.011
PIMPLE: iteration 1
angle antes: 0.0201892
oldOmega        2.03409;
omega           2.03739;
error           0.329811;
errorIntegral   0;
angle           0.0222266;
DICPCG:  Solving for cellDisplacementx, Initial residual = 0.050889, Final residual = 8.21149e-15, No Iterations 1
DICPCG:  Solving for cellDisplacementy, Initial residual = 0.0515872, Final residual = 5.12069e-14, No Iterations 1
PIMPLE: iteration 2
    Point usage OK.
    Upper triangular ordering OK.
    Topological cell zip-up check OK.
    Face vertices OK.
    Face-face connectivity OK.
    Mesh topology OK.
    Boundary openness (-8.90908e-19 1.78182e-18 -6.07114e-16) OK.
 ***High aspect ratio cells found, Max aspect ratio: 1.2122e+97, number of cells 1847
    Minimum face area = 4.95955e-10. Maximum face area = 1.17284.  Face area magnitudes OK.
 ***Zero or negative cell volume detected.  Minimum negative volume: -1.90099e-06, Number of negative volume cells: 135
    Mesh non-orthogonality Max: 178.322 average: 15.7988
   *Number of severely non-orthogonal (> 70 degrees) faces: 64.
 ***Number of non-orthogonality errors: 235.
 ***Error in face pyramids: 748 faces are incorrectly oriented.
 ***Max skewness = 161.143, 24 highly skew faces detected which may impair the quality of the results
    Failed 5 mesh geometry checks.
    Failed 1 mesh checks.
ExecutionTime = 1.23 s  ClockTime = 2 s

Time = 0.012
PIMPLE: iteration 1
angle antes: 0.0222266
oldOmega        2.03739;
omega           2.04067;
error           0.327773;
errorIntegral   0;
angle           0.0242672;
DICPCG:  Solving for cellDisplacementx, Initial residual = 0.0448708, Final residual = 9.97918e-15, No Iterations 1
DICPCG:  Solving for cellDisplacementy, Initial residual = 0.0472679, Final residual = 9.38791e-14, No Iterations 1
PIMPLE: iteration 2
    Point usage OK.
    Upper triangular ordering OK.
    Topological cell zip-up check OK.
    Face vertices OK.
    Face-face connectivity OK.
    Mesh topology OK.
    Boundary openness (-8.90908e-19 0 9.25206e-16) OK.
 ***High aspect ratio cells found, Max aspect ratio: 1.70869e+97, number of cells 1858
    Minimum face area = 2.16534e-09. Maximum face area = 1.17284.  Face area magnitudes OK.
 ***Zero or negative cell volume detected.  Minimum negative volume: -2.01065e-06, Number of negative volume cells: 145
    Mesh non-orthogonality Max: 179.582 average: 16.2393
   *Number of severely non-orthogonal (> 70 degrees) faces: 67.
 ***Number of non-orthogonality errors: 249.
 ***Error in face pyramids: 806 faces are incorrectly oriented.
 ***Max skewness = 137.358, 31 highly skew faces detected which may impair the quality of the results
    Failed 5 mesh geometry checks.
    Failed 1 mesh checks.
ExecutionTime = 1.32 s  ClockTime = 2 s

Time = 0.013
PIMPLE: iteration 1
angle antes: 0.0242672
oldOmega        2.04067;
omega           2.04393;
error           0.325733;
errorIntegral   0;
angle           0.0263112;
DICPCG:  Solving for cellDisplacementx, Initial residual = 0.0414304, Final residual = 1.25171e-14, No Iterations 1
DICPCG:  Solving for cellDisplacementy, Initial residual = 0.0436334, Final residual = 1.18355e-13, No Iterations 1
PIMPLE: iteration 2
    Point usage OK.
    Upper triangular ordering OK.
    Topological cell zip-up check OK.
    Face vertices OK.
    Face-face connectivity OK.
    Mesh topology OK.
    Boundary openness (-8.90908e-19 0 -7.16549e-16) OK.
 ***High aspect ratio cells found, Max aspect ratio: 1.69981e+97, number of cells 1862
    Minimum face area = 6.73354e-10. Maximum face area = 1.17284.  Face area magnitudes OK.
 ***Zero or negative cell volume detected.  Minimum negative volume: -3.06701e-06, Number of negative volume cells: 169
    Mesh non-orthogonality Max: 179.916 average: 17.1431
   *Number of severely non-orthogonal (> 70 degrees) faces: 64.
 ***Number of non-orthogonality errors: 289.
 ***Error in face pyramids: 929 faces are incorrectly oriented.
 ***Max skewness = 1360.27, 36 highly skew faces detected which may impair the quality of the results
    Failed 5 mesh geometry checks.
    Failed 1 mesh checks.
ExecutionTime = 1.42 s  ClockTime = 2 s

Time = 0.014
PIMPLE: iteration 1
angle antes: 0.0263112
oldOmega        2.04393;
omega           2.04716;
error           0.323689;
errorIntegral   0;
angle           0.0283583;
DICPCG:  Solving for cellDisplacementx, Initial residual = 0.0385437, Final residual = 1.43001e-14, No Iterations 1
DICPCG:  Solving for cellDisplacementy, Initial residual = 0.0405227, Final residual = 1.20727e-13, No Iterations 1
PIMPLE: iteration 2
    Point usage OK.
    Upper triangular ordering OK.
    Topological cell zip-up check OK.
    Face vertices OK.
    Face-face connectivity OK.
    Mesh topology OK.
    Boundary openness (-8.90908e-19 -1.78182e-18 -7.52049e-16) OK.
 ***High aspect ratio cells found, Max aspect ratio: 1.58652e+97, number of cells 1868
    Minimum face area = 1.97494e-10. Maximum face area = 1.17284.  Face area magnitudes OK.
 ***Zero or negative cell volume detected.  Minimum negative volume: -1.94596e-06, Number of negative volume cells: 167
    Mesh non-orthogonality Max: 179.944 average: 17.6585
   *Number of severely non-orthogonal (> 70 degrees) faces: 98.
 ***Number of non-orthogonality errors: 298.
 ***Error in face pyramids: 930 faces are incorrectly oriented.
 ***Max skewness = 242.69, 29 highly skew faces detected which may impair the quality of the results
    Failed 5 mesh geometry checks.
    Failed 1 mesh checks.
ExecutionTime = 1.51 s  ClockTime = 2 s

Time = 0.015
PIMPLE: iteration 1
angle antes: 0.0283583
oldOmega        2.04716;
omega           2.05038;
error           0.321642;
errorIntegral   0;
angle           0.0304087;
DICPCG:  Solving for cellDisplacementx, Initial residual = 0.0367365, Final residual = 1.88884e-14, No Iterations 1
DICPCG:  Solving for cellDisplacementy, Initial residual = 0.0378398, Final residual = 1.31657e-13, No Iterations 1
PIMPLE: iteration 2
    Point usage OK.
    Upper triangular ordering OK.
    Topological cell zip-up check OK.
    Face vertices OK.
    Face-face connectivity OK.
    Mesh topology OK.
    Boundary openness (-8.90908e-19 -1.78182e-18 -1.21451e-15) OK.
 ***High aspect ratio cells found, Max aspect ratio: 2.00245e+97, number of cells 1879
    Minimum face area = 7.1896e-10. Maximum face area = 1.17284.  Face area magnitudes OK.
 ***Zero or negative cell volume detected.  Minimum negative volume: -2.30993e-06, Number of negative volume cells: 168
    Mesh non-orthogonality Max: 179.788 average: 17.699
   *Number of severely non-orthogonal (> 70 degrees) faces: 94.
 ***Number of non-orthogonality errors: 286.
 ***Error in face pyramids: 922 faces are incorrectly oriented.
 ***Max skewness = 17.184, 26 highly skew faces detected which may impair the quality of the results
    Failed 5 mesh geometry checks.
    Failed 1 mesh checks.
ExecutionTime = 1.61 s  ClockTime = 2 s

Time = 0.016
PIMPLE: iteration 1
angle antes: 0.0304087
oldOmega        2.05038;
omega           2.05358;
error           0.319591;
errorIntegral   0;
angle           0.0324623;
DICPCG:  Solving for cellDisplacementx, Initial residual = 0.0341086, Final residual = 1.60819e-14, No Iterations 1
DICPCG:  Solving for cellDisplacementy, Initial residual = 0.0355008, Final residual = 1.08392e-13, No Iterations 1
PIMPLE: iteration 2
    Point usage OK.
    Upper triangular ordering OK.
    Topological cell zip-up check OK.
    Face vertices OK.
    Face-face connectivity OK.
    Mesh topology OK.
    Boundary openness (-8.90908e-19 0 1.54185e-15) OK.
 ***High aspect ratio cells found, Max aspect ratio: 2.15923e+97, number of cells 1882
    Minimum face area = 3.63294e-09. Maximum face area = 1.17284.  Face area magnitudes OK.
 ***Zero or negative cell volume detected.  Minimum negative volume: -2.94874e-06, Number of negative volume cells: 187
    Mesh non-orthogonality Max: 179.985 average: 18.4431
   *Number of severely non-orthogonal (> 70 degrees) faces: 106.
 ***Number of non-orthogonality errors: 322.
 ***Error in face pyramids: 1031 faces are incorrectly oriented.
 ***Max skewness = 96.8934, 35 highly skew faces detected which may impair the quality of the results
    Failed 5 mesh geometry checks.
    Failed 1 mesh checks.
ExecutionTime = 1.71 s  ClockTime = 2 s

Time = 0.017
PIMPLE: iteration 1
angle antes: 0.0324623
oldOmega        2.05358;
omega           2.05675;
error           0.317538;
errorIntegral   0;
angle           0.034519;
DICPCG:  Solving for cellDisplacementx, Initial residual = 0.031958, Final residual = 1.32084e-14, No Iterations 1
DICPCG:  Solving for cellDisplacementy, Initial residual = 0.0334296, Final residual = 8.80432e-14, No Iterations 1
PIMPLE: iteration 2
    Point usage OK.
    Upper triangular ordering OK.
    Topological cell zip-up check OK.
    Face vertices OK.
    Face-face connectivity OK.
    Mesh topology OK.
    Boundary openness (-8.90908e-19 0 3.57643e-15) OK.
 ***High aspect ratio cells found, Max aspect ratio: 2.11248e+97, number of cells 1891
    Minimum face area = 1.36446e-09. Maximum face area = 1.17284.  Face area magnitudes OK.
 ***Zero or negative cell volume detected.  Minimum negative volume: -3.3577e-06, Number of negative volume cells: 189
    Mesh non-orthogonality Max: 179.604 average: 18.6579
   *Number of severely non-orthogonal (> 70 degrees) faces: 93.
 ***Number of non-orthogonality errors: 322.
 ***Error in face pyramids: 1041 faces are incorrectly oriented.
 ***Max skewness = 114.079, 31 highly skew faces detected which may impair the quality of the results
    Failed 5 mesh geometry checks.
    Failed 1 mesh checks.
ExecutionTime = 1.8 s  ClockTime = 2 s

Time = 0.018
PIMPLE: iteration 1
angle antes: 0.034519
oldOmega        2.05675;
omega           2.05991;
error           0.315481;
errorIntegral   0;
angle           0.036579;
DICPCG:  Solving for cellDisplacementx, Initial residual = 0.0303166, Final residual = 1.81506e-14, No Iterations 1
DICPCG:  Solving for cellDisplacementy, Initial residual = 0.0315923, Final residual = 1.12911e-13, No Iterations 1
PIMPLE: iteration 2
    Point usage OK.
    Upper triangular ordering OK.
    Topological cell zip-up check OK.
    Face vertices OK.
    Face-face connectivity OK.
    Mesh topology OK.
    Boundary openness (-8.90908e-19 1.78182e-18 2.03698e-15) OK.
 ***High aspect ratio cells found, Max aspect ratio: 2.14864e+97, number of cells 1903
    Minimum face area = 2.02936e-10. Maximum face area = 1.17284.  Face area magnitudes OK.
 ***Zero or negative cell volume detected.  Minimum negative volume: -3.77914e-06, Number of negative volume cells: 179
    Mesh non-orthogonality Max: 179.995 average: 18.8676
   *Number of severely non-orthogonal (> 70 degrees) faces: 125.
 ***Number of non-orthogonality errors: 311.
 ***Error in face pyramids: 992 faces are incorrectly oriented.
 ***Max skewness = 155.593, 27 highly skew faces detected which may impair the quality of the results
    Failed 5 mesh geometry checks.
    Failed 1 mesh checks.
ExecutionTime = 1.89 s  ClockTime = 2 s

Time = 0.019
PIMPLE: iteration 1
angle antes: 0.036579
oldOmega        2.05991;
omega           2.06304;
error           0.313421;
errorIntegral   0;
angle           0.038642;
DICPCG:  Solving for cellDisplacementx, Initial residual = 0.0293106, Final residual = 1.44394e-14, No Iterations 1
DICPCG:  Solving for cellDisplacementy, Initial residual = 0.0299527, Final residual = 7.00916e-14, No Iterations 1
PIMPLE: iteration 2
    Point usage OK.
    Upper triangular ordering OK.
    Topological cell zip-up check OK.
    Face vertices OK.
    Face-face connectivity OK.
    Mesh topology OK.
    Boundary openness (-8.90908e-19 0 5.51921e-16) OK.
 ***High aspect ratio cells found, Max aspect ratio: 2.32979e+97, number of cells 1906
    Minimum face area = 9.62085e-10. Maximum face area = 1.17284.  Face area magnitudes OK.
 ***Zero or negative cell volume detected.  Minimum negative volume: -4.51006e-06, Number of negative volume cells: 202
    Mesh non-orthogonality Max: 179.979 average: 19.3796
   *Number of severely non-orthogonal (> 70 degrees) faces: 114.
 ***Number of non-orthogonality errors: 347.
 ***Error in face pyramids: 1104 faces are incorrectly oriented.
 ***Max skewness = 93.7101, 31 highly skew faces detected which may impair the quality of the results
    Failed 5 mesh geometry checks.
    Failed 1 mesh checks.
ExecutionTime = 1.99 s  ClockTime = 2 s

Time = 0.02
PIMPLE: iteration 1
angle antes: 0.038642
oldOmega        2.06304;
omega           2.06615;
error           0.311358;
errorIntegral   0;
angle           0.0407081;
DICPCG:  Solving for cellDisplacementx, Initial residual = 0.0277378, Final residual = 2.55425e-14, No Iterations 1
DICPCG:  Solving for cellDisplacementy, Initial residual = 0.0284862, Final residual = 1.28948e-13, No Iterations 1
PIMPLE: iteration 2
    Point usage OK.
    Upper triangular ordering OK.
    Topological cell zip-up check OK.
    Face vertices OK.
    Face-face connectivity OK.
    Mesh topology OK.
    Boundary openness (-8.90908e-19 0 3.54642e-16) OK.
 ***High aspect ratio cells found, Max aspect ratio: 2.56135e+97, number of cells 1911
    Minimum face area = 2.18417e-09. Maximum face area = 1.17284.  Face area magnitudes OK.
 ***Zero or negative cell volume detected.  Minimum negative volume: -5.14911e-06, Number of negative volume cells: 188
    Mesh non-orthogonality Max: 179.938 average: 19.3585
   *Number of severely non-orthogonal (> 70 degrees) faces: 115.
 ***Number of non-orthogonality errors: 329.
 ***Error in face pyramids: 1038 faces are incorrectly oriented.
 ***Max skewness = 150.08, 26 highly skew faces detected which may impair the quality of the results
    Failed 5 mesh geometry checks.
    Failed 1 mesh checks.
ExecutionTime = 2.14 s  ClockTime = 3 s

Time = 0.021
PIMPLE: iteration 1
angle antes: 0.0407081
oldOmega        2.06615;
omega           2.06925;
error           0.309292;
errorIntegral   0;
angle           0.0427774;
DICPCG:  Solving for cellDisplacementx, Initial residual = 0.0261525, Final residual = 1.01948e-14, No Iterations 1
DICPCG:  Solving for cellDisplacementy, Initial residual = 0.0271418, Final residual = 5.19593e-14, No Iterations 1
PIMPLE: iteration 2
    Point usage OK.
    Upper triangular ordering OK.
    Topological cell zip-up check OK.
    Face vertices OK.
    Face-face connectivity OK.
    Mesh topology OK.
    Boundary openness (-8.90908e-19 0 -3.44823e-16) OK.
 ***High aspect ratio cells found, Max aspect ratio: 2.4611e+97, number of cells 1913
    Minimum face area = 2.44716e-09. Maximum face area = 1.17284.  Face area magnitudes OK.
 ***Zero or negative cell volume detected.  Minimum negative volume: -5.22263e-06, Number of negative volume cells: 201
    Mesh non-orthogonality Max: 179.416 average: 19.8816
   *Number of severely non-orthogonal (> 70 degrees) faces: 126.
 ***Number of non-orthogonality errors: 350.
 ***Error in face pyramids: 1108 faces are incorrectly oriented.
 ***Max skewness = 176.88, 31 highly skew faces detected which may impair the quality of the results
    Failed 5 mesh geometry checks.
    Failed 1 mesh checks.
ExecutionTime = 2.24 s  ClockTime = 3 s

Time = 0.022
PIMPLE: iteration 1
angle antes: 0.0427774
oldOmega        2.06925;
omega           2.07232;
error           0.307223;
errorIntegral   0;
angle           0.0448497;
DICPCG:  Solving for cellDisplacementx, Initial residual = 0.026117, Final residual = 2.81933e-14, No Iterations 1
DICPCG:  Solving for cellDisplacementy, Initial residual = 0.0259403, Final residual = 1.01966e-13, No Iterations 1
PIMPLE: iteration 2
    Point usage OK.
    Upper triangular ordering OK.
    Topological cell zip-up check OK.
    Face vertices OK.
    Face-face connectivity OK.
    Mesh topology OK.
    Boundary openness (-8.90908e-19 0 -2.40559e-16) OK.
 ***High aspect ratio cells found, Max aspect ratio: 3.14704e+97, number of cells 1923
    Minimum face area = 4.19999e-09. Maximum face area = 1.17284.  Face area magnitudes OK.
 ***Zero or negative cell volume detected.  Minimum negative volume: -6.15975e-06, Number of negative volume cells: 183
    Mesh non-orthogonality Max: 179.871 average: 19.9148
   *Number of severely non-orthogonal (> 70 degrees) faces: 138.
 ***Number of non-orthogonality errors: 333.
 ***Error in face pyramids: 1022 faces are incorrectly oriented.
 ***Max skewness = 27.1138, 29 highly skew faces detected which may impair the quality of the results
    Failed 5 mesh geometry checks.
    Failed 1 mesh checks.
ExecutionTime = 2.34 s  ClockTime = 3 s

Time = 0.023
PIMPLE: iteration 1
angle antes: 0.0448497
oldOmega        2.07232;
omega           2.07537;
error           0.30515;
errorIntegral   0;
angle           0.0469251;
DICPCG:  Solving for cellDisplacementx, Initial residual = 0.0243116, Final residual = 1.83934e-14, No Iterations 1
DICPCG:  Solving for cellDisplacementy, Initial residual = 0.0248296, Final residual = 8.09922e-14, No Iterations 1
PIMPLE: iteration 2
    Point usage OK.
    Upper triangular ordering OK.
    Topological cell zip-up check OK.
    Face vertices OK.
    Face-face connectivity OK.
    Mesh topology OK.
    Boundary openness (-8.90908e-19 0 1.1727e-15) OK.
 ***High aspect ratio cells found, Max aspect ratio: 3.45784e+97, number of cells 1924
    Minimum face area = 8.21575e-10. Maximum face area = 1.17284.  Face area magnitudes OK.
 ***Zero or negative cell volume detected.  Minimum negative volume: -7.57689e-06, Number of negative volume cells: 175
    Mesh non-orthogonality Max: 179.865 average: 19.8338
   *Number of severely non-orthogonal (> 70 degrees) faces: 131.
 ***Number of non-orthogonality errors: 315.
 ***Error in face pyramids: 981 faces are incorrectly oriented.
 ***Max skewness = 22.3977, 24 highly skew faces detected which may impair the quality of the results
    Failed 5 mesh geometry checks.
    Failed 1 mesh checks.
ExecutionTime = 2.44 s  ClockTime = 3 s

Time = 0.024
PIMPLE: iteration 1
angle antes: 0.0469251
oldOmega        2.07537;
omega           2.0784;
error           0.303075;
errorIntegral   0;
angle           0.0490035;
DICPCG:  Solving for cellDisplacementx, Initial residual = 0.0233246, Final residual = 1.38631e-14, No Iterations 1
DICPCG:  Solving for cellDisplacementy, Initial residual = 0.0238151, Final residual = 5.70116e-14, No Iterations 1
PIMPLE: iteration 2
    Point usage OK.
    Upper triangular ordering OK.
    Topological cell zip-up check OK.
    Face vertices OK.
    Face-face connectivity OK.
    Mesh topology OK.
    Boundary openness (-8.90908e-19 1.78182e-18 -4.16838e-16) OK.
 ***High aspect ratio cells found, Max aspect ratio: 3.14559e+97, number of cells 1934
    Minimum face area = 1.54049e-09. Maximum face area = 1.17284.  Face area magnitudes OK.
 ***Zero or negative cell volume detected.  Minimum negative volume: -8.4771e-06, Number of negative volume cells: 202
    Mesh non-orthogonality Max: 179.61 average: 20.4436
   *Number of severely non-orthogonal (> 70 degrees) faces: 158.
 ***Number of non-orthogonality errors: 352.
 ***Error in face pyramids: 1122 faces are incorrectly oriented.
 ***Max skewness = 71.5756, 36 highly skew faces detected which may impair the quality of the results
    Failed 5 mesh geometry checks.
    Failed 1 mesh checks.
ExecutionTime = 2.53 s  ClockTime = 3 s

Time = 0.025
PIMPLE: iteration 1
angle antes: 0.0490035
oldOmega        2.0784;
omega           2.08141;
error           0.300997;
errorIntegral   0;
angle           0.0510849;
DICPCG:  Solving for cellDisplacementx, Initial residual = 0.022422, Final residual = 1.72363e-14, No Iterations 1
DICPCG:  Solving for cellDisplacementy, Initial residual = 0.0228824, Final residual = 7.24175e-14, No Iterations 1
PIMPLE: iteration 2
    Point usage OK.
    Upper triangular ordering OK.
    Topological cell zip-up check OK.
    Face vertices OK.
    Face-face connectivity OK.
    Mesh topology OK.
    Boundary openness (-8.90908e-19 0 -4.89002e-15) OK.
 ***High aspect ratio cells found, Max aspect ratio: 3.65183e+97, number of cells 1932
    Minimum face area = 1.3658e-09. Maximum face area = 1.17284.  Face area magnitudes OK.
 ***Zero or negative cell volume detected.  Minimum negative volume: -9.62786e-06, Number of negative volume cells: 190
    Mesh non-orthogonality Max: 179.655 average: 20.4884
   *Number of severely non-orthogonal (> 70 degrees) faces: 156.
 ***Number of non-orthogonality errors: 340.
 ***Error in face pyramids: 1061 faces are incorrectly oriented.
 ***Max skewness = 38.2023, 25 highly skew faces detected which may impair the quality of the results
    Failed 5 mesh geometry checks.
    Failed 1 mesh checks.
ExecutionTime = 2.63 s  ClockTime = 3 s

Time = 0.026
PIMPLE: iteration 1
angle antes: 0.0510849
oldOmega        2.08141;
omega           2.0844;
error           0.298915;
errorIntegral   0;
angle           0.0531693;
DICPCG:  Solving for cellDisplacementx, Initial residual = 0.0217502, Final residual = 2.13722e-14, No Iterations 1
DICPCG:  Solving for cellDisplacementy, Initial residual = 0.0220242, Final residual = 8.27465e-14, No Iterations 1
PIMPLE: iteration 2
    Point usage OK.
    Upper triangular ordering OK.
    Topological cell zip-up check OK.
    Face vertices OK.
    Face-face connectivity OK.
    Mesh topology OK.
    Boundary openness (-8.90908e-19 0 -2.1303e-15) OK.
 ***High aspect ratio cells found, Max aspect ratio: 3.93951e+97, number of cells 1940
    Minimum face area = 1.07851e-09. Maximum face area = 1.17284.  Face area magnitudes OK.
 ***Zero or negative cell volume detected.  Minimum negative volume: -1.08399e-05, Number of negative volume cells: 193
    Mesh non-orthogonality Max: 179.908 average: 20.7668
   *Number of severely non-orthogonal (> 70 degrees) faces: 168.
 ***Number of non-orthogonality errors: 352.
 ***Error in face pyramids: 1070 faces are incorrectly oriented.
 ***Max skewness = 79.0076, 25 highly skew faces detected which may impair the quality of the results
    Failed 5 mesh geometry checks.
    Failed 1 mesh checks.
ExecutionTime = 2.73 s  ClockTime = 3 s

Time = 0.027
PIMPLE: iteration 1
angle antes: 0.0531693
oldOmega        2.0844;
omega           2.08737;
error           0.296831;
errorIntegral   0;
angle           0.0552567;
DICPCG:  Solving for cellDisplacementx, Initial residual = 0.0215987, Final residual = 1.80924e-14, No Iterations 1
DICPCG:  Solving for cellDisplacementy, Initial residual = 0.0212366, Final residual = 5.66391e-14, No Iterations 1
PIMPLE: iteration 2
    Point usage OK.
    Upper triangular ordering OK.
    Topological cell zip-up check OK.
    Face vertices OK.
    Face-face connectivity OK.
    Mesh topology OK.
    Boundary openness (-8.90908e-19 -1.78182e-18 6.02029e-16) OK.
 ***High aspect ratio cells found, Max aspect ratio: 4.21636e+97, number of cells 1935
    Minimum face area = 1.44073e-09. Maximum face area = 1.17284.  Face area magnitudes OK.
 ***Zero or negative cell volume detected.  Minimum negative volume: -1.15881e-05, Number of negative volume cells: 181
    Mesh non-orthogonality Max: 179.592 average: 20.7101
   *Number of severely non-orthogonal (> 70 degrees) faces: 185.
 ***Number of non-orthogonality errors: 326.
 ***Error in face pyramids: 1015 faces are incorrectly oriented.
 ***Max skewness = 50.5033, 23 highly skew faces detected which may impair the quality of the results
    Failed 5 mesh geometry checks.
    Failed 1 mesh checks.
ExecutionTime = 2.83 s  ClockTime = 3 s

Time = 0.028
PIMPLE: iteration 1
angle antes: 0.0552567
oldOmega        2.08737;
omega           2.09032;
error           0.294743;
errorIntegral   0;
angle           0.057347;
DICPCG:  Solving for cellDisplacementx, Initial residual = 0.0204686, Final residual = 1.49019e-14, No Iterations 1
DICPCG:  Solving for cellDisplacementy, Initial residual = 0.0204936, Final residual = 4.92472e-14, No Iterations 1
PIMPLE: iteration 2
    Point usage OK.
    Upper triangular ordering OK.
    Topological cell zip-up check OK.
    Face vertices OK.
    Face-face connectivity OK.
    Mesh topology OK.
    Boundary openness (-8.90908e-19 0 1.1819e-15) OK.
 ***High aspect ratio cells found, Max aspect ratio: 4.46811e+97, number of cells 1949
    Minimum face area = 1.63815e-09. Maximum face area = 1.17284.  Face area magnitudes OK.
 ***Zero or negative cell volume detected.  Minimum negative volume: -1.28885e-05, Number of negative volume cells: 193
    Mesh non-orthogonality Max: 179.714 average: 21.1285
   *Number of severely non-orthogonal (> 70 degrees) faces: 210.
 ***Number of non-orthogonality errors: 346.
 ***Error in face pyramids: 1079 faces are incorrectly oriented.
 ***Max skewness = 833.548, 40 highly skew faces detected which may impair the quality of the results
    Failed 5 mesh geometry checks.
    Failed 1 mesh checks.
ExecutionTime = 2.93 s  ClockTime = 3 s

Time = 0.029
PIMPLE: iteration 1
angle antes: 0.057347
oldOmega        2.09032;
omega           2.09324;
error           0.292653;
errorIntegral   0;
angle           0.0594402;
DICPCG:  Solving for cellDisplacementx, Initial residual = 0.019943, Final residual = 3.45733e-14, No Iterations 1
DICPCG:  Solving for cellDisplacementy, Initial residual = 0.0198066, Final residual = 1.15731e-13, No Iterations 1
PIMPLE: iteration 2
    Point usage OK.
    Upper triangular ordering OK.
    Topological cell zip-up check OK.
    Face vertices OK.
    Face-face connectivity OK.
    Mesh topology OK.
    Boundary openness (-8.90907e-19 1.78181e-18 2.08112e-15) OK.
 ***High aspect ratio cells found, Max aspect ratio: 4.6502e+97, number of cells 1948
    Minimum face area = 1.30632e-10. Maximum face area = 1.17284.  Face area magnitudes OK.
 ***Zero or negative cell volume detected.  Minimum negative volume: -1.30981e-05, Number of negative volume cells: 194
    Mesh non-orthogonality Max: 179.776 average: 21.0161
   *Number of severely non-orthogonal (> 70 degrees) faces: 194.
 ***Number of non-orthogonality errors: 343.
 ***Error in face pyramids: 1067 faces are incorrectly oriented.
 ***Max skewness = 94.2793, 35 highly skew faces detected which may impair the quality of the results
    Failed 5 mesh geometry checks.
    Failed 1 mesh checks.
ExecutionTime = 3.03 s  ClockTime = 3 s

Time = 0.03
PIMPLE: iteration 1
angle antes: 0.0594402
oldOmega        2.09324;
omega           2.09615;
error           0.29056;
errorIntegral   0;
angle           0.0615364;
DICPCG:  Solving for cellDisplacementx, Initial residual = 0.0191528, Final residual = 1.2689e-14, No Iterations 1
DICPCG:  Solving for cellDisplacementy, Initial residual = 0.019162, Final residual = 4.15133e-14, No Iterations 1
PIMPLE: iteration 2
    Point usage OK.
    Upper triangular ordering OK.
    Topological cell zip-up check OK.
    Face vertices OK.
    Face-face connectivity OK.
    Mesh topology OK.
    Boundary openness (-8.90907e-19 0 2.02053e-16) OK.
 ***High aspect ratio cells found, Max aspect ratio: 4.95601e+97, number of cells 1959
    Minimum face area = 4.20246e-10. Maximum face area = 1.17284.  Face area magnitudes OK.
 ***Zero or negative cell volume detected.  Minimum negative volume: -1.37858e-05, Number of negative volume cells: 209
    Mesh non-orthogonality Max: 179.848 average: 21.4755
   *Number of severely non-orthogonal (> 70 degrees) faces: 229.
 ***Number of non-orthogonality errors: 353.
 ***Error in face pyramids: 1148 faces are incorrectly oriented.
 ***Max skewness = 25.0306, 29 highly skew faces detected which may impair the quality of the results
    Failed 5 mesh geometry checks.
    Failed 1 mesh checks.
ExecutionTime = 3.18 s  ClockTime = 4 s

Time = 0.031
PIMPLE: iteration 1
angle antes: 0.0615364
oldOmega        2.09615;
omega           2.09903;
error           0.288464;
errorIntegral   0;
angle           0.0636354;
DICPCG:  Solving for cellDisplacementx, Initial residual = 0.0192413, Final residual = 2.0633e-14, No Iterations 1
DICPCG:  Solving for cellDisplacementy, Initial residual = 0.018575, Final residual = 5.60845e-14, No Iterations 1
PIMPLE: iteration 2
    Point usage OK.
    Upper triangular ordering OK.
    Topological cell zip-up check OK.
    Face vertices OK.
    Face-face connectivity OK.
    Mesh topology OK.
    Boundary openness (-8.90907e-19 0 2.7112e-15) OK.
 ***High aspect ratio cells found, Max aspect ratio: 5.3333e+97, number of cells 1948
    Minimum face area = 6.48681e-11. Maximum face area = 1.17284.  Face area magnitudes OK.
 ***Zero or negative cell volume detected.  Minimum negative volume: -1.48894e-05, Number of negative volume cells: 192
    Mesh non-orthogonality Max: 179.499 average: 21.3544
   *Number of severely non-orthogonal (> 70 degrees) faces: 229.
 ***Number of non-orthogonality errors: 341.
 ***Error in face pyramids: 1071 faces are incorrectly oriented.
 ***Max skewness = 209.96, 32 highly skew faces detected which may impair the quality of the results
    Failed 5 mesh geometry checks.
    Failed 1 mesh checks.
ExecutionTime = 3.29 s  ClockTime = 4 s

Time = 0.032
PIMPLE: iteration 1
angle antes: 0.0636354
oldOmega        2.09903;
omega           2.1019;
error           0.286365;
errorIntegral   0;
angle           0.0657373;
DICPCG:  Solving for cellDisplacementx, Initial residual = 0.0182283, Final residual = 1.70997e-14, No Iterations 1
DICPCG:  Solving for cellDisplacementy, Initial residual = 0.0180005, Final residual = 5.16006e-14, No Iterations 1
PIMPLE: iteration 2
    Point usage OK.
    Upper triangular ordering OK.
    Topological cell zip-up check OK.
    Face vertices OK.
    Face-face connectivity OK.
    Mesh topology OK.
    Boundary openness (-8.90907e-19 0 1.51634e-15) OK.
 ***High aspect ratio cells found, Max aspect ratio: 5.65092e+97, number of cells 1964
    Minimum face area = 1.45323e-09. Maximum face area = 1.17284.  Face area magnitudes OK.
 ***Zero or negative cell volume detected.  Minimum negative volume: -1.5475e-05, Number of negative volume cells: 203
    Mesh non-orthogonality Max: 179.915 average: 21.644
   *Number of severely non-orthogonal (> 70 degrees) faces: 244.
 ***Number of non-orthogonality errors: 353.
 ***Error in face pyramids: 1114 faces are incorrectly oriented.
 ***Max skewness = 385.731, 34 highly skew faces detected which may impair the quality of the results
    Failed 5 mesh geometry checks.
    Failed 1 mesh checks.
ExecutionTime = 3.38 s  ClockTime = 4 s

Time = 0.033
PIMPLE: iteration 1
angle antes: 0.0657373
oldOmega        2.1019;
omega           2.10474;
error           0.284263;
errorIntegral   0;
angle           0.0678421;
DICPCG:  Solving for cellDisplacementx, Initial residual = 0.0179216, Final residual = 2.58592e-14, No Iterations 1
DICPCG:  Solving for cellDisplacementy, Initial residual = 0.0174751, Final residual = 7.41032e-14, No Iterations 1
PIMPLE: iteration 2
    Point usage OK.
    Upper triangular ordering OK.
    Topological cell zip-up check OK.
    Face vertices OK.
    Face-face connectivity OK.
    Mesh topology OK.
    Boundary openness (-8.90907e-19 0 -1.35744e-15) OK.
 ***High aspect ratio cells found, Max aspect ratio: 5.88136e+97, number of cells 1964
    Minimum face area = 4.99956e-10. Maximum face area = 1.17284.  Face area magnitudes OK.
 ***Zero or negative cell volume detected.  Minimum negative volume: -1.59215e-05, Number of negative volume cells: 205
    Mesh non-orthogonality Max: 179.77 average: 21.6987
   *Number of severely non-orthogonal (> 70 degrees) faces: 230.
 ***Number of non-orthogonality errors: 358.
 ***Error in face pyramids: 1131 faces are incorrectly oriented.
 ***Max skewness = 37.3913, 34 highly skew faces detected which may impair the quality of the results
    Failed 5 mesh geometry checks.
    Failed 1 mesh checks.
ExecutionTime = 3.48 s  ClockTime = 4 s

Time = 0.034
PIMPLE: iteration 1
angle antes: 0.0678421
oldOmega        2.10474;
omega           2.10756;
error           0.282158;
errorIntegral   0;
angle           0.0699496;
DICPCG:  Solving for cellDisplacementx, Initial residual = 0.0175441, Final residual = 1.78101e-14, No Iterations 1
DICPCG:  Solving for cellDisplacementy, Initial residual = 0.0169784, Final residual = 4.77355e-14, No Iterations 1
PIMPLE: iteration 2
    Point usage OK.
    Upper triangular ordering OK.
    Topological cell zip-up check OK.
    Face vertices OK.
    Face-face connectivity OK.
    Mesh topology OK.
    Boundary openness (-8.90907e-19 0 -1.70145e-15) OK.
 ***High aspect ratio cells found, Max aspect ratio: 6.17827e+97, number of cells 1974
    Minimum face area = 1.03826e-09. Maximum face area = 1.17284.  Face area magnitudes OK.
 ***Zero or negative cell volume detected.  Minimum negative volume: -1.62957e-05, Number of negative volume cells: 212
    Mesh non-orthogonality Max: 179.597 average: 22.046
   *Number of severely non-orthogonal (> 70 degrees) faces: 259.
 ***Number of non-orthogonality errors: 372.
 ***Error in face pyramids: 1166 faces are incorrectly oriented.
 ***Max skewness = 43.5642, 44 highly skew faces detected which may impair the quality of the results
    Failed 5 mesh geometry checks.
    Failed 1 mesh checks.
ExecutionTime = 3.57 s  ClockTime = 4 s

Time = 0.035
PIMPLE: iteration 1
angle antes: 0.0699496
oldOmega        2.10756;
omega           2.11036;
error           0.28005;
errorIntegral   0;
angle           0.07206;
DICPCG:  Solving for cellDisplacementx, Initial residual = 0.0169487, Final residual = 2.45725e-14, No Iterations 1
DICPCG:  Solving for cellDisplacementy, Initial residual = 0.0165037, Final residual = 6.55722e-14, No Iterations 1
PIMPLE: iteration 2
    Point usage OK.
    Upper triangular ordering OK.
    Topological cell zip-up check OK.
    Face vertices OK.
    Face-face connectivity OK.
    Mesh topology OK.
    Boundary openness (-8.90907e-19 0 1.35614e-15) OK.
 ***High aspect ratio cells found, Max aspect ratio: 6.41554e+97, number of cells 1969
    Minimum face area = 1.34585e-10. Maximum face area = 1.17284.  Face area magnitudes OK.
 ***Zero or negative cell volume detected.  Minimum negative volume: -1.67534e-05, Number of negative volume cells: 204
    Mesh non-orthogonality Max: 179.733 average: 21.9536
   *Number of severely non-orthogonal (> 70 degrees) faces: 252.
 ***Number of non-orthogonality errors: 355.
 ***Error in face pyramids: 1117 faces are incorrectly oriented.
 ***Max skewness = 212.458, 43 highly skew faces detected which may impair the quality of the results
    Failed 5 mesh geometry checks.
    Failed 1 mesh checks.
ExecutionTime = 3.67 s  ClockTime = 4 s

Time = 0.036
PIMPLE: iteration 1
angle antes: 0.07206
oldOmega        2.11036;
omega           2.11314;
error           0.27794;
errorIntegral   0;
angle           0.0741731;
DICPCG:  Solving for cellDisplacementx, Initial residual = 0.0165976, Final residual = 2.7499e-14, No Iterations 1
DICPCG:  Solving for cellDisplacementy, Initial residual = 0.0160605, Final residual = 7.26047e-14, No Iterations 1
PIMPLE: iteration 2
    Point usage OK.
    Upper triangular ordering OK.
    Topological cell zip-up check OK.
    Face vertices OK.
    Face-face connectivity OK.
    Mesh topology OK.
    Boundary openness (-8.90907e-19 1.78181e-18 -4.2658e-16) OK.
 ***High aspect ratio cells found, Max aspect ratio: 6.7052e+97, number of cells 1975
    Minimum face area = 8.18351e-10. Maximum face area = 1.17284.  Face area magnitudes OK.
 ***Zero or negative cell volume detected.  Minimum negative volume: -1.71885e-05, Number of negative volume cells: 206
    Mesh non-orthogonality Max: 179.916 average: 22.1697
   *Number of severely non-orthogonal (> 70 degrees) faces: 262.
 ***Number of non-orthogonality errors: 359.
 ***Error in face pyramids: 1138 faces are incorrectly oriented.
 ***Max skewness = 326.885, 37 highly skew faces detected which may impair the quality of the results
    Failed 5 mesh geometry checks.
    Failed 1 mesh checks.
ExecutionTime = 3.76 s  ClockTime = 4 s

Time = 0.037
PIMPLE: iteration 1
angle antes: 0.0741731
oldOmega        2.11314;
omega           2.1159;
error           0.275827;
errorIntegral   0;
angle           0.076289;
DICPCG:  Solving for cellDisplacementx, Initial residual = 0.0162724, Final residual = 2.05737e-14, No Iterations 1
DICPCG:  Solving for cellDisplacementy, Initial residual = 0.0156424, Final residual = 5.22443e-14, No Iterations 1
PIMPLE: iteration 2
    Point usage OK.
    Upper triangular ordering OK.
    Topological cell zip-up check OK.
    Face vertices OK.
    Face-face connectivity OK.
    Mesh topology OK.
    Boundary openness (-8.90907e-19 0 -6.47915e-16) OK.
 ***High aspect ratio cells found, Max aspect ratio: 6.99497e+97, number of cells 1976
    Minimum face area = 3.27776e-09. Maximum face area = 1.17284.  Face area magnitudes OK.
 ***Zero or negative cell volume detected.  Minimum negative volume: -1.79526e-05, Number of negative volume cells: 199
    Mesh non-orthogonality Max: 179.577 average: 22.0071
   *Number of severely non-orthogonal (> 70 degrees) faces: 263.
 ***Number of non-orthogonality errors: 347.
 ***Error in face pyramids: 1086 faces are incorrectly oriented.
 ***Max skewness = 102.332, 37 highly skew faces detected which may impair the quality of the results
    Failed 5 mesh geometry checks.
    Failed 1 mesh checks.
ExecutionTime = 3.86 s  ClockTime = 4 s

Time = 0.038
PIMPLE: iteration 1
angle antes: 0.076289
oldOmega        2.1159;
omega           2.11864;
error           0.273711;
errorIntegral   0;
angle           0.0784077;
DICPCG:  Solving for cellDisplacementx, Initial residual = 0.0161143, Final residual = 2.20279e-14, No Iterations 1
DICPCG:  Solving for cellDisplacementy, Initial residual = 0.0152472, Final residual = 5.07941e-14, No Iterations 1
PIMPLE: iteration 2
    Point usage OK.
    Upper triangular ordering OK.
    Topological cell zip-up check OK.
    Face vertices OK.
    Face-face connectivity OK.
    Mesh topology OK.
    Boundary openness (-8.90907e-19 0 -3.29735e-16) OK.
 ***High aspect ratio cells found, Max aspect ratio: 7.28193e+97, number of cells 1988
    Minimum face area = 4.73013e-10. Maximum face area = 1.17284.  Face area magnitudes OK.
 ***Zero or negative cell volume detected.  Minimum negative volume: -1.84807e-05, Number of negative volume cells: 207
    Mesh non-orthogonality Max: 179.984 average: 22.268
   *Number of severely non-orthogonal (> 70 degrees) faces: 276.
 ***Number of non-orthogonality errors: 354.
 ***Error in face pyramids: 1126 faces are incorrectly oriented.
 ***Max skewness = 202.827, 36 highly skew faces detected which may impair the quality of the results
    Failed 5 mesh geometry checks.
    Failed 1 mesh checks.
ExecutionTime = 3.96 s  ClockTime = 4 s

Time = 0.039
PIMPLE: iteration 1
angle antes: 0.0784077
oldOmega        2.11864;
omega           2.12135;
error           0.271592;
errorIntegral   0;
angle           0.080529;
DICPCG:  Solving for cellDisplacementx, Initial residual = 0.0157415, Final residual = 1.86409e-14, No Iterations 1
DICPCG:  Solving for cellDisplacementy, Initial residual = 0.0148687, Final residual = 4.06589e-14, No Iterations 1
PIMPLE: iteration 2
    Point usage OK.
    Upper triangular ordering OK.
    Topological cell zip-up check OK.
    Face vertices OK.
    Face-face connectivity OK.
    Mesh topology OK.
    Boundary openness (-8.90907e-19 -1.78181e-18 -5.5906e-16) OK.
 ***High aspect ratio cells found, Max aspect ratio: 7.35653e+97, number of cells 1976
    Minimum face area = 3.97231e-09. Maximum face area = 1.17284.  Face area magnitudes OK.
 ***Zero or negative cell volume detected.  Minimum negative volume: -1.87627e-05, Number of negative volume cells: 203
    Mesh non-orthogonality Max: 179.907 average: 22.4474
   *Number of severely non-orthogonal (> 70 degrees) faces: 277.
 ***Number of non-orthogonality errors: 365.
 ***Error in face pyramids: 1122 faces are incorrectly oriented.
 ***Max skewness = 155.53, 45 highly skew faces detected which may impair the quality of the results
    Failed 5 mesh geometry checks.
    Failed 1 mesh checks.
ExecutionTime = 4.05 s  ClockTime = 4 s

Time = 0.04
PIMPLE: iteration 1
angle antes: 0.080529
oldOmega        2.12135;
omega           2.12405;
error           0.269471;
errorIntegral   0;
angle           0.0826531;
DICPCG:  Solving for cellDisplacementx, Initial residual = 0.0154374, Final residual = 3.24729e-14, No Iterations 1
DICPCG:  Solving for cellDisplacementy, Initial residual = 0.01451, Final residual = 7.12419e-14, No Iterations 1
PIMPLE: iteration 2
    Point usage OK.
    Upper triangular ordering OK.
    Topological cell zip-up check OK.
    Face vertices OK.
    Face-face connectivity OK.
    Mesh topology OK.
    Boundary openness (-8.90907e-19 0 -3.97798e-15) OK.
 ***High aspect ratio cells found, Max aspect ratio: 7.77303e+97, number of cells 1984
    Minimum face area = 7.2842e-10. Maximum face area = 1.17284.  Face area magnitudes OK.
 ***Zero or negative cell volume detected.  Minimum negative volume: -1.94806e-05, Number of negative volume cells: 212
    Mesh non-orthogonality Max: 179.886 average: 22.6174
   *Number of severely non-orthogonal (> 70 degrees) faces: 282.
 ***Number of non-orthogonality errors: 375.
 ***Error in face pyramids: 1155 faces are incorrectly oriented.
 ***Max skewness = 84.7925, 44 highly skew faces detected which may impair the quality of the results
    Failed 5 mesh geometry checks.
    Failed 1 mesh checks.
ExecutionTime = 4.2 s  ClockTime = 5 s

Time = 0.041
PIMPLE: iteration 1
angle antes: 0.0826531
oldOmega        2.12405;
omega           2.12672;
error           0.267347;
errorIntegral   0;
angle           0.0847798;
DICPCG:  Solving for cellDisplacementx, Initial residual = 0.0148355, Final residual = 1.82805e-14, No Iterations 1
DICPCG:  Solving for cellDisplacementy, Initial residual = 0.0141603, Final residual = 4.26562e-14, No Iterations 1
PIMPLE: iteration 2
    Point usage OK.
    Upper triangular ordering OK.
    Topological cell zip-up check OK.
    Face vertices OK.
    Face-face connectivity OK.
    Mesh topology OK.
    Boundary openness (-8.90907e-19 0 -2.60421e-16) OK.
 ***High aspect ratio cells found, Max aspect ratio: 8.1621e+97, number of cells 1982
    Minimum face area = 2.13603e-09. Maximum face area = 1.17284.  Face area magnitudes OK.
 ***Zero or negative cell volume detected.  Minimum negative volume: -1.92897e-05, Number of negative volume cells: 209
    Mesh non-orthogonality Max: 179.857 average: 22.6744
   *Number of severely non-orthogonal (> 70 degrees) faces: 283.
 ***Number of non-orthogonality errors: 367.
 ***Error in face pyramids: 1143 faces are incorrectly oriented.
 ***Max skewness = 372.1, 47 highly skew faces detected which may impair the quality of the results
    Failed 5 mesh geometry checks.
    Failed 1 mesh checks.
ExecutionTime = 4.3 s  ClockTime = 5 s

Time = 0.042
PIMPLE: iteration 1
angle antes: 0.0847798
oldOmega        2.12672;
omega           2.12937;
error           0.26522;
errorIntegral   0;
angle           0.0869091;
DICPCG:  Solving for cellDisplacementx, Initial residual = 0.0150725, Final residual = 2.62398e-14, No Iterations 1
DICPCG:  Solving for cellDisplacementy, Initial residual = 0.0138465, Final residual = 5.18943e-14, No Iterations 1
PIMPLE: iteration 2
    Point usage OK.
    Upper triangular ordering OK.
    Topological cell zip-up check OK.
    Face vertices OK.
    Face-face connectivity OK.
    Mesh topology OK.
    Boundary openness (-8.90907e-19 0 -2.28635e-15) OK.
 ***High aspect ratio cells found, Max aspect ratio: 8.0924e+97, number of cells 1988
    Minimum face area = 1.51515e-10. Maximum face area = 1.17284.  Face area magnitudes OK.
 ***Zero or negative cell volume detected.  Minimum negative volume: -1.96381e-05, Number of negative volume cells: 228
    Mesh non-orthogonality Max: 179.615 average: 22.9891
   *Number of severely non-orthogonal (> 70 degrees) faces: 276.
 ***Number of non-orthogonality errors: 395.
 ***Error in face pyramids: 1236 faces are incorrectly oriented.
 ***Max skewness = 92.9556, 44 highly skew faces detected which may impair the quality of the results
    Failed 5 mesh geometry checks.
    Failed 1 mesh checks.
ExecutionTime = 4.4 s  ClockTime = 5 s

Time = 0.043
PIMPLE: iteration 1
angle antes: 0.0869091
oldOmega        2.12937;
omega           2.132;
error           0.263091;
errorIntegral   0;
angle           0.0890412;
DICPCG:  Solving for cellDisplacementx, Initial residual = 0.0144334, Final residual = 1.92098e-14, No Iterations 1
DICPCG:  Solving for cellDisplacementy, Initial residual = 0.0135262, Final residual = 4.08009e-14, No Iterations 1
PIMPLE: iteration 2
    Point usage OK.
    Upper triangular ordering OK.
    Topological cell zip-up check OK.
    Face vertices OK.
    Face-face connectivity OK.
    Mesh topology OK.
    Boundary openness (-8.90907e-19 1.78181e-18 1.88835e-15) OK.
 ***High aspect ratio cells found, Max aspect ratio: 8.27521e+97, number of cells 1983
    Minimum face area = 1.30486e-08. Maximum face area = 1.17284.  Face area magnitudes OK.
 ***Zero or negative cell volume detected.  Minimum negative volume: -2.00934e-05, Number of negative volume cells: 212
    Mesh non-orthogonality Max: 179.844 average: 23.0586
   *Number of severely non-orthogonal (> 70 degrees) faces: 297.
 ***Number of non-orthogonality errors: 376.
 ***Error in face pyramids: 1156 faces are incorrectly oriented.
 ***Max skewness = 696.964, 48 highly skew faces detected which may impair the quality of the results
    Failed 5 mesh geometry checks.
    Failed 1 mesh checks.
ExecutionTime = 4.5 s  ClockTime = 5 s

Time = 0.044
PIMPLE: iteration 1
angle antes: 0.0890412
oldOmega        2.132;
omega           2.13461;
error           0.260959;
errorIntegral   0;
angle           0.0911758;
DICPCG:  Solving for cellDisplacementx, Initial residual = 0.0143143, Final residual = 3.38719e-14, No Iterations 1
DICPCG:  Solving for cellDisplacementy, Initial residual = 0.0132328, Final residual = 6.82033e-14, No Iterations 1
PIMPLE: iteration 2
    Point usage OK.
    Upper triangular ordering OK.
    Topological cell zip-up check OK.
    Face vertices OK.
    Face-face connectivity OK.
    Mesh topology OK.
    Boundary openness (-8.90907e-19 1.78181e-18 2.55611e-15) OK.
 ***High aspect ratio cells found, Max aspect ratio: 9.06905e+97, number of cells 1990
    Minimum face area = 6.12224e-10. Maximum face area = 1.17284.  Face area magnitudes OK.
 ***Zero or negative cell volume detected.  Minimum negative volume: -2.03285e-05, Number of negative volume cells: 211
    Mesh non-orthogonality Max: 179.184 average: 23.0357
   *Number of severely non-orthogonal (> 70 degrees) faces: 295.
 ***Number of non-orthogonality errors: 375.
 ***Error in face pyramids: 1156 faces are incorrectly oriented.
 ***Max skewness = 58.32, 47 highly skew faces detected which may impair the quality of the results
    Failed 5 mesh geometry checks.
    Failed 1 mesh checks.
ExecutionTime = 4.59 s  ClockTime = 5 s

Time = 0.045
PIMPLE: iteration 1
angle antes: 0.0911758
oldOmega        2.13461;
omega           2.1372;
error           0.258824;
errorIntegral   0;
angle           0.093313;
DICPCG:  Solving for cellDisplacementx, Initial residual = 0.0138982, Final residual = 1.33427e-14, No Iterations 1
DICPCG:  Solving for cellDisplacementy, Initial residual = 0.0129439, Final residual = 2.49862e-14, No Iterations 1
PIMPLE: iteration 2
    Point usage OK.
    Upper triangular ordering OK.
    Topological cell zip-up check OK.
    Face vertices OK.
    Face-face connectivity OK.
    Mesh topology OK.
    Boundary openness (-8.90907e-19 -1.78181e-18 1.04266e-15) OK.
 ***High aspect ratio cells found, Max aspect ratio: 8.32002e+97, number of cells 1985
    Minimum face area = 3.65892e-10. Maximum face area = 1.17284.  Face area magnitudes OK.
 ***Zero or negative cell volume detected.  Minimum negative volume: -1.95595e-05, Number of negative volume cells: 224
    Mesh non-orthogonality Max: 179.969 average: 23.3626
   *Number of severely non-orthogonal (> 70 degrees) faces: 305.
 ***Number of non-orthogonality errors: 391.
 ***Error in face pyramids: 1229 faces are incorrectly oriented.
 ***Max skewness = 97.746, 47 highly skew faces detected which may impair the quality of the results
    Failed 5 mesh geometry checks.
    Failed 1 mesh checks.
ExecutionTime = 4.69 s  ClockTime = 5 s

Time = 0.046
PIMPLE: iteration 1
angle antes: 0.093313
oldOmega        2.1372;
omega           2.13977;
error           0.256687;
errorIntegral   0;
angle           0.0954527;
DICPCG:  Solving for cellDisplacementx, Initial residual = 0.0138619, Final residual = 2.32362e-14, No Iterations 1
DICPCG:  Solving for cellDisplacementy, Initial residual = 0.0126772, Final residual = 4.34405e-14, No Iterations 1
PIMPLE: iteration 2
    Point usage OK.
    Upper triangular ordering OK.
    Topological cell zip-up check OK.
    Face vertices OK.
    Face-face connectivity OK.
    Mesh topology OK.
    Boundary openness (-8.90906e-19 0 4.33846e-15) OK.
 ***High aspect ratio cells found, Max aspect ratio: 9.09867e+97, number of cells 1990
    Minimum face area = 4.79578e-10. Maximum face area = 1.17284.  Face area magnitudes OK.
 ***Zero or negative cell volume detected.  Minimum negative volume: -1.96769e-05, Number of negative volume cells: 234
    Mesh non-orthogonality Max: 179.841 average: 23.5563
   *Number of severely non-orthogonal (> 70 degrees) faces: 292.
 ***Number of non-orthogonality errors: 410.
 ***Error in face pyramids: 1277 faces are incorrectly oriented.
 ***Max skewness = 1049.99, 46 highly skew faces detected which may impair the quality of the results
    Failed 5 mesh geometry checks.
    Failed 1 mesh checks.
ExecutionTime = 4.79 s  ClockTime = 5 s

Time = 0.047
PIMPLE: iteration 1
angle antes: 0.0954527
oldOmega        2.13977;
omega           2.14231;
error           0.254547;
errorIntegral   0;
angle           0.0975951;
DICPCG:  Solving for cellDisplacementx, Initial residual = 0.0140897, Final residual = 2.8762e-14, No Iterations 1
DICPCG:  Solving for cellDisplacementy, Initial residual = 0.012431, Final residual = 4.8412e-14, No Iterations 1
PIMPLE: iteration 2
    Point usage OK.
    Upper triangular ordering OK.
    Topological cell zip-up check OK.
    Face vertices OK.
    Face-face connectivity OK.
    Mesh topology OK.
    Boundary openness (-8.90906e-19 -1.78181e-18 1.32095e-15) OK.
 ***High aspect ratio cells found, Max aspect ratio: 9.75319e+97, number of cells 1987
    Minimum face area = 3.73755e-09. Maximum face area = 1.17284.  Face area magnitudes OK.
 ***Zero or negative cell volume detected.  Minimum negative volume: -2.02963e-05, Number of negative volume cells: 233
    Mesh non-orthogonality Max: 178.541 average: 23.5484
   *Number of severely non-orthogonal (> 70 degrees) faces: 308.
 ***Number of non-orthogonality errors: 401.
 ***Error in face pyramids: 1266 faces are incorrectly oriented.
 ***Max skewness = 175.041, 39 highly skew faces detected which may impair the quality of the results
    Failed 5 mesh geometry checks.
    Failed 1 mesh checks.
ExecutionTime = 4.88 s  ClockTime = 5 s

Time = 0.048
PIMPLE: iteration 1
angle antes: 0.0975951
oldOmega        2.14231;
omega           2.14484;
error           0.252405;
errorIntegral   0;
angle           0.0997399;
DICPCG:  Solving for cellDisplacementx, Initial residual = 0.0134144, Final residual = 2.62037e-14, No Iterations 1
DICPCG:  Solving for cellDisplacementy, Initial residual = 0.0121657, Final residual = 4.72532e-14, No Iterations 1
PIMPLE: iteration 2
    Point usage OK.
    Upper triangular ordering OK.
    Topological cell zip-up check OK.
    Face vertices OK.
    Face-face connectivity OK.
    Mesh topology OK.
    Boundary openness (-8.90906e-19 1.78181e-18 -1.10347e-15) OK.
 ***High aspect ratio cells found, Max aspect ratio: 9.0101e+97, number of cells 2000
    Minimum face area = 6.88354e-10. Maximum face area = 1.17284.  Face area magnitudes OK.
 ***Zero or negative cell volume detected.  Minimum negative volume: -1.94608e-05, Number of negative volume cells: 221
    Mesh non-orthogonality Max: 179.906 average: 23.4931
   *Number of severely non-orthogonal (> 70 degrees) faces: 312.
 ***Number of non-orthogonality errors: 385.
 ***Error in face pyramids: 1197 faces are incorrectly oriented.
 ***Max skewness = 187.983, 48 highly skew faces detected which may impair the quality of the results
    Failed 5 mesh geometry checks.
    Failed 1 mesh checks.
ExecutionTime = 4.98 s  ClockTime = 5 s

Time = 0.049
PIMPLE: iteration 1
angle antes: 0.0997399
oldOmega        2.14484;
omega           2.14734;
error           0.25026;
errorIntegral   0;
angle           0.101887;
DICPCG:  Solving for cellDisplacementx, Initial residual = 0.0132664, Final residual = 1.59929e-14, No Iterations 1
DICPCG:  Solving for cellDisplacementy, Initial residual = 0.0119273, Final residual = 2.70494e-14, No Iterations 1
PIMPLE: iteration 2
    Point usage OK.
    Upper triangular ordering OK.
    Topological cell zip-up check OK.
    Face vertices OK.
    Face-face connectivity OK.
    Mesh topology OK.
    Boundary openness (-8.90906e-19 -1.78181e-18 1.67593e-15) OK.
 ***High aspect ratio cells found, Max aspect ratio: 9.52029e+97, number of cells 1997
    Minimum face area = 8.27385e-10. Maximum face area = 1.17284.  Face area magnitudes OK.
 ***Zero or negative cell volume detected.  Minimum negative volume: -1.98244e-05, Number of negative volume cells: 225
    Mesh non-orthogonality Max: 178.91 average: 23.6781
   *Number of severely non-orthogonal (> 70 degrees) faces: 322.
 ***Number of non-orthogonality errors: 389.
 ***Error in face pyramids: 1235 faces are incorrectly oriented.
 ***Max skewness = 117.665, 43 highly skew faces detected which may impair the quality of the results
    Failed 5 mesh geometry checks.
    Failed 1 mesh checks.
ExecutionTime = 5.08 s  ClockTime = 5 s

Time = 0.05
PIMPLE: iteration 1
angle antes: 0.101887
oldOmega        2.14734;
omega           2.14982;
error           0.248113;
errorIntegral   0;
angle           0.104037;
DICPCG:  Solving for cellDisplacementx, Initial residual = 0.0134032, Final residual = 3.13546e-14, No Iterations 1
DICPCG:  Solving for cellDisplacementy, Initial residual = 0.011705, Final residual = 4.90597e-14, No Iterations 1
PIMPLE: iteration 2
    Point usage OK.
    Upper triangular ordering OK.
    Topological cell zip-up check OK.
    Face vertices OK.
    Face-face connectivity OK.
    Mesh topology OK.
    Boundary openness (-8.90906e-19 0 2.33345e-16) OK.
 ***High aspect ratio cells found, Max aspect ratio: 9.93373e+97, number of cells 2008
    Minimum face area = 6.03562e-10. Maximum face area = 1.17284.  Face area magnitudes OK.
 ***Zero or negative cell volume detected.  Minimum negative volume: -2.026e-05, Number of negative volume cells: 219
    Mesh non-orthogonality Max: 179.866 average: 23.6366
   *Number of severely non-orthogonal (> 70 degrees) faces: 336.
 ***Number of non-orthogonality errors: 381.
 ***Error in face pyramids: 1195 faces are incorrectly oriented.
 ***Max skewness = 194.718, 44 highly skew faces detected which may impair the quality of the results
    Failed 5 mesh geometry checks.
    Failed 1 mesh checks.
ExecutionTime = 5.23 s  ClockTime = 6 s

Time = 0.051
PIMPLE: iteration 1
angle antes: 0.104037
oldOmega        2.14982;
omega           2.15228;
error           0.245963;
errorIntegral   0;
angle           0.106189;
DICPCG:  Solving for cellDisplacementx, Initial residual = 0.0129362, Final residual = 1.00607e-14, No Iterations 1
DICPCG:  Solving for cellDisplacementy, Initial residual = 0.0114811, Final residual = 1.66323e-14, No Iterations 1
PIMPLE: iteration 2
    Point usage OK.
    Upper triangular ordering OK.
    Topological cell zip-up check OK.
    Face vertices OK.
    Face-face connectivity OK.
    Mesh topology OK.
    Boundary openness (-8.90906e-19 0 1.37555e-15) OK.
 ***High aspect ratio cells found, Max aspect ratio: 9.68034e+97, number of cells 1995
    Minimum face area = 2.75643e-09. Maximum face area = 1.17284.  Face area magnitudes OK.
 ***Zero or negative cell volume detected.  Minimum negative volume: -2.0043e-05, Number of negative volume cells: 233
    Mesh non-orthogonality Max: 179.219 average: 23.9971
   *Number of severely non-orthogonal (> 70 degrees) faces: 349.
 ***Number of non-orthogonality errors: 403.
 ***Error in face pyramids: 1274 faces are incorrectly oriented.
 ***Max skewness = 610.255, 50 highly skew faces detected which may impair the quality of the results
    Failed 5 mesh geometry checks.
    Failed 1 mesh checks.
ExecutionTime = 5.33 s  ClockTime = 6 s

Time = 0.052
PIMPLE: iteration 1
angle antes: 0.106189
oldOmega        2.15228;
omega           2.15472;
error           0.243811;
errorIntegral   0;
angle           0.108344;
DICPCG:  Solving for cellDisplacementx, Initial residual = 0.0125554, Final residual = 1.66489e-14, No Iterations 1
DICPCG:  Solving for cellDisplacementy, Initial residual = 0.0112583, Final residual = 2.80599e-14, No Iterations 1
PIMPLE: iteration 2
    Point usage OK.
    Upper triangular ordering OK.
    Topological cell zip-up check OK.
    Face vertices OK.
    Face-face connectivity OK.
    Mesh topology OK.
    Boundary openness (-8.90906e-19 -1.78181e-18 3.06054e-15) OK.
 ***High aspect ratio cells found, Max aspect ratio: 1.00328e+98, number of cells 2002
    Minimum face area = 1.11733e-09. Maximum face area = 1.17284.  Face area magnitudes OK.
 ***Zero or negative cell volume detected.  Minimum negative volume: -2.00367e-05, Number of negative volume cells: 235
    Mesh non-orthogonality Max: 179.843 average: 24.1259
   *Number of severely non-orthogonal (> 70 degrees) faces: 373.
 ***Number of non-orthogonality errors: 405.
 ***Error in face pyramids: 1287 faces are incorrectly oriented.
 ***Max skewness = 94.2106, 43 highly skew faces detected which may impair the quality of the results
    Failed 5 mesh geometry checks.
    Failed 1 mesh checks.
ExecutionTime = 5.43 s  ClockTime = 6 s

Time = 0.053
PIMPLE: iteration 1
angle antes: 0.108344
oldOmega        2.15472;
omega           2.15714;
error           0.241656;
errorIntegral   0;
angle           0.110501;
DICPCG:  Solving for cellDisplacementx, Initial residual = 0.0129874, Final residual = 1.86153e-14, No Iterations 1
DICPCG:  Solving for cellDisplacementy, Initial residual = 0.0110752, Final residual = 2.61424e-14, No Iterations 1
PIMPLE: iteration 2
    Point usage OK.
    Upper triangular ordering OK.
    Topological cell zip-up check OK.
    Face vertices OK.
    Face-face connectivity OK.
    Mesh topology OK.
    Boundary openness (-8.90906e-19 0 -3.32341e-15) OK.
 ***High aspect ratio cells found, Max aspect ratio: 1.01233e+98, number of cells 2002
    Minimum face area = 1.69868e-09. Maximum face area = 1.17284.  Face area magnitudes OK.
 ***Zero or negative cell volume detected.  Minimum negative volume: -2.03476e-05, Number of negative volume cells: 224
    Mesh non-orthogonality Max: 179.841 average: 23.9876
   *Number of severely non-orthogonal (> 70 degrees) faces: 357.
 ***Number of non-orthogonality errors: 393.
 ***Error in face pyramids: 1227 faces are incorrectly oriented.
 ***Max skewness = 62.7586, 50 highly skew faces detected which may impair the quality of the results
    Failed 5 mesh geometry checks.
    Failed 1 mesh checks.
ExecutionTime = 5.52 s  ClockTime = 6 s

Time = 0.054
PIMPLE: iteration 1
angle antes: 0.110501
oldOmega        2.15714;
omega           2.15953;
error           0.239499;
errorIntegral   0;
angle           0.112661;
DICPCG:  Solving for cellDisplacementx, Initial residual = 0.0124714, Final residual = 1.54991e-14, No Iterations 1
DICPCG:  Solving for cellDisplacementy, Initial residual = 0.0108644, Final residual = 2.35062e-14, No Iterations 1
PIMPLE: iteration 2
    Point usage OK.
    Upper triangular ordering OK.
    Topological cell zip-up check OK.
    Face vertices OK.
    Face-face connectivity OK.
    Mesh topology OK.
    Boundary openness (-8.90906e-19 0 -2.40425e-15) OK.
 ***High aspect ratio cells found, Max aspect ratio: 1.01215e+98, number of cells 2004
    Minimum face area = 4.19258e-09. Maximum face area = 1.17284.  Face area magnitudes OK.
 ***Zero or negative cell volume detected.  Minimum negative volume: -2.05476e-05, Number of negative volume cells: 241
    Mesh non-orthogonality Max: 179.794 average: 24.373
   *Number of severely non-orthogonal (> 70 degrees) faces: 382.
 ***Number of non-orthogonality errors: 416.
 ***Error in face pyramids: 1316 faces are incorrectly oriented.
 ***Max skewness = 18.092, 47 highly skew faces detected which may impair the quality of the results
    Failed 5 mesh geometry checks.
    Failed 1 mesh checks.
ExecutionTime = 5.61 s  ClockTime = 6 s

Time = 0.055
PIMPLE: iteration 1
angle antes: 0.112661
oldOmega        2.15953;
omega           2.1619;
error           0.237339;
errorIntegral   0;
angle           0.114823;
DICPCG:  Solving for cellDisplacementx, Initial residual = 0.0122553, Final residual = 2.45933e-14, No Iterations 1
DICPCG:  Solving for cellDisplacementy, Initial residual = 0.0106739, Final residual = 3.81506e-14, No Iterations 1
PIMPLE: iteration 2
    Point usage OK.
    Upper triangular ordering OK.
    Topological cell zip-up check OK.
    Face vertices OK.
    Face-face connectivity OK.
    Mesh topology OK.
    Boundary openness (-8.90906e-19 0 -8.87592e-16) OK.
 ***High aspect ratio cells found, Max aspect ratio: 1.04013e+98, number of cells 2012
    Minimum face area = 5.976e-09. Maximum face area = 1.17284.  Face area magnitudes OK.
 ***Zero or negative cell volume detected.  Minimum negative volume: -2.08447e-05, Number of negative volume cells: 223
    Mesh non-orthogonality Max: 179.525 average: 24.1091
   *Number of severely non-orthogonal (> 70 degrees) faces: 372.
 ***Number of non-orthogonality errors: 390.
 ***Error in face pyramids: 1223 faces are incorrectly oriented.
 ***Max skewness = 18.2865, 44 highly skew faces detected which may impair the quality of the results
    Failed 5 mesh geometry checks.
    Failed 1 mesh checks.
ExecutionTime = 5.71 s  ClockTime = 6 s

Time = 0.056
PIMPLE: iteration 1
angle antes: 0.114823
oldOmega        2.1619;
omega           2.16426;
error           0.235177;
errorIntegral   0;
angle           0.116987;
DICPCG:  Solving for cellDisplacementx, Initial residual = 0.0119449, Final residual = 2.28209e-14, No Iterations 1
DICPCG:  Solving for cellDisplacementy, Initial residual = 0.0104836, Final residual = 3.58805e-14, No Iterations 1
PIMPLE: iteration 2
    Point usage OK.
    Upper triangular ordering OK.
    Topological cell zip-up check OK.
    Face vertices OK.
    Face-face connectivity OK.
    Mesh topology OK.
    Boundary openness (-8.90906e-19 0 -2.15521e-16) OK.
 ***High aspect ratio cells found, Max aspect ratio: 1.07596e+98, number of cells 2004
    Minimum face area = 4.27111e-09. Maximum face area = 1.17284.  Face area magnitudes OK.
 ***Zero or negative cell volume detected.  Minimum negative volume: -2.11713e-05, Number of negative volume cells: 221
    Mesh non-orthogonality Max: 179.789 average: 24.2868
   *Number of severely non-orthogonal (> 70 degrees) faces: 408.
 ***Number of non-orthogonality errors: 379.
 ***Error in face pyramids: 1213 faces are incorrectly oriented.
 ***Max skewness = 36.5394, 48 highly skew faces detected which may impair the quality of the results
    Failed 5 mesh geometry checks.
    Failed 1 mesh checks.
ExecutionTime = 5.81 s  ClockTime = 6 s

Time = 0.057
PIMPLE: iteration 1
angle antes: 0.116987
oldOmega        2.16426;
omega           2.16659;
error           0.233013;
errorIntegral   0;
angle           0.119153;
DICPCG:  Solving for cellDisplacementx, Initial residual = 0.0121437, Final residual = 2.23439e-14, No Iterations 1
DICPCG:  Solving for cellDisplacementy, Initial residual = 0.0103166, Final residual = 3.17423e-14, No Iterations 1
PIMPLE: iteration 2
    Point usage OK.
    Upper triangular ordering OK.
    Topological cell zip-up check OK.
    Face vertices OK.
    Face-face connectivity OK.
    Mesh topology OK.
    Boundary openness (-8.90906e-19 0 -2.91431e-15) OK.
 ***High aspect ratio cells found, Max aspect ratio: 1.06602e+98, number of cells 2004
    Minimum face area = 3.98712e-09. Maximum face area = 1.17284.  Face area magnitudes OK.
[...]
    Mesh non-orthogonality Max: 179.928 average: 35.708
   *Number of severely non-orthogonal (> 70 degrees) faces: 1136.
 ***Number of non-orthogonality errors: 963.
 ***Error in face pyramids: 3199 faces are incorrectly oriented.
 ***Max skewness = 171.896, 84 highly skew faces detected which may impair the quality of the results
    Failed 5 mesh geometry checks.
    Failed 1 mesh checks.
ExecutionTime = 132.25 s  ClockTime = 133 s

Time = 1.187
PIMPLE: iteration 1
angle antes: 0.275059
oldOmega        -2.27542;
omega           -2.27467;
error           0.0749411;
errorIntegral   0;
angle           0.272784;
DICPCG:  Solving for cellDisplacementx, Initial residual = 0.00327614, Final residual = 6.1348e-15, No Iterations 1
DICPCG:  Solving for cellDisplacementy, Initial residual = 0.00438733, Final residual = 1.21434e-14, No Iterations 1
PIMPLE: iteration 2
    Point usage OK.
    Upper triangular ordering OK.
    Topological cell zip-up check OK.
    Face vertices OK.
    Face-face connectivity OK.
    Mesh topology OK.
    Boundary openness (-8.90891e-19 0 -1.21208e-15) OK.
 ***High aspect ratio cells found, Max aspect ratio: 3.46959e+98, number of cells 2289
    Minimum face area = 2.58095e-10. Maximum face area = 1.17565.  Face area magnitudes OK.
 ***Zero or negative cell volume detected.  Minimum negative volume: -0.000112176, Number of negative volume cells: 605
    Mesh non-orthogonality Max: 179.9 average: 35.72
   *Number of severely non-orthogonal (> 70 degrees) faces: 1143.
 ***Number of non-orthogonality errors: 968.
 ***Error in face pyramids: 3194 faces are incorrectly oriented.
 ***Max skewness = 386.865, 90 highly skew faces detected which may impair the quality of the results
    Failed 5 mesh geometry checks.
    Failed 1 mesh checks.
ExecutionTime = 132.35 s  ClockTime = 133 s

Time = 1.188
PIMPLE: iteration 1
angle antes: 0.272784
oldOmega        -2.27467;
omega           -2.2739;
error           0.0772158;
errorIntegral   0;
angle           0.27051;
DICPCG:  Solving for cellDisplacementx, Initial residual = 0.00317371, Final residual = 4.32108e-15, No Iterations 1
DICPCG:  Solving for cellDisplacementy, Initial residual = 0.00436295, Final residual = 1.00363e-14, No Iterations 1
PIMPLE: iteration 2
    Point usage OK.
    Upper triangular ordering OK.
    Topological cell zip-up check OK.
    Face vertices OK.
    Face-face connectivity OK.
    Mesh topology OK.
    Boundary openness (-8.90892e-19 0 -2.70302e-16) OK.
 ***High aspect ratio cells found, Max aspect ratio: 3.47983e+98, number of cells 2313
    Minimum face area = 7.66276e-10. Maximum face area = 1.17565.  Face area magnitudes OK.
 ***Zero or negative cell volume detected.  Minimum negative volume: -0.000112134, Number of negative volume cells: 601
    Mesh non-orthogonality Max: 179.887 average: 35.8547
   *Number of severely non-orthogonal (> 70 degrees) faces: 1170.
 ***Number of non-orthogonality errors: 966.
 ***Error in face pyramids: 3176 faces are incorrectly oriented.
 ***Max skewness = 418.462, 86 highly skew faces detected which may impair the quality of the results
    Failed 5 mesh geometry checks.
    Failed 1 mesh checks.
ExecutionTime = 132.45 s  ClockTime = 133 s

Time = 1.189
PIMPLE: iteration 1
angle antes: 0.27051
oldOmega        -2.2739;
omega           -2.27311;
error           0.0794897;
errorIntegral   0;
angle           0.268237;
DICPCG:  Solving for cellDisplacementx, Initial residual = 0.0038641, Final residual = 9.06378e-15, No Iterations 1
DICPCG:  Solving for cellDisplacementy, Initial residual = 0.00518791, Final residual = 1.83275e-14, No Iterations 1
PIMPLE: iteration 2
    Point usage OK.
    Upper triangular ordering OK.
    Topological cell zip-up check OK.
    Face vertices OK.
    Face-face connectivity OK.
    Mesh topology OK.
    Boundary openness (-8.90891e-19 0 1.00921e-15) OK.
 ***High aspect ratio cells found, Max aspect ratio: 3.51397e+98, number of cells 2297
    Minimum face area = 1.80124e-09. Maximum face area = 1.17566.  Face area magnitudes OK.
 ***Zero or negative cell volume detected.  Minimum negative volume: -0.000116615, Number of negative volume cells: 593
    Mesh non-orthogonality Max: 179.998 average: 35.4286
   *Number of severely non-orthogonal (> 70 degrees) faces: 1143.
 ***Number of non-orthogonality errors: 939.
 ***Error in face pyramids: 3124 faces are incorrectly oriented.
 ***Max skewness = 304.634, 86 highly skew faces detected which may impair the quality of the results
    Failed 5 mesh geometry checks.
    Failed 1 mesh checks.
ExecutionTime = 132.56 s  ClockTime = 133 s

Time = 1.19
PIMPLE: iteration 1
angle antes: 0.268237
oldOmega        -2.27311;
omega           -2.27229;
error           0.0817628;
errorIntegral   0;
angle           0.265965;
DICPCG:  Solving for cellDisplacementx, Initial residual = 0.0033014, Final residual = 3.0474e-15, No Iterations 1
DICPCG:  Solving for cellDisplacementy, Initial residual = 0.00464737, Final residual = 7.22898e-15, No Iterations 1
PIMPLE: iteration 2
    Point usage OK.
    Upper triangular ordering OK.
    Topological cell zip-up check OK.
    Face vertices OK.
    Face-face connectivity OK.
    Mesh topology OK.
    Boundary openness (-8.90892e-19 0 -1.23706e-15) OK.
 ***High aspect ratio cells found, Max aspect ratio: 3.52511e+98, number of cells 2305
    Minimum face area = 8.11143e-10. Maximum face area = 1.17566.  Face area magnitudes OK.
 ***Zero or negative cell volume detected.  Minimum negative volume: -0.000113914, Number of negative volume cells: 610
    Mesh non-orthogonality Max: 179.754 average: 35.7832
   *Number of severely non-orthogonal (> 70 degrees) faces: 1179.
 ***Number of non-orthogonality errors: 971.
 ***Error in face pyramids: 3230 faces are incorrectly oriented.
 ***Max skewness = 297.697, 81 highly skew faces detected which may impair the quality of the results
    Failed 5 mesh geometry checks.
    Failed 1 mesh checks.
ExecutionTime = 132.71 s  ClockTime = 133 s

Time = 1.191
PIMPLE: iteration 1
angle antes: 0.265965
oldOmega        -2.27229;
omega           -2.27145;
error           0.0840351;
errorIntegral   0;
angle           0.263693;
DICPCG:  Solving for cellDisplacementx, Initial residual = 0.0032196, Final residual = 9.03338e-15, No Iterations 1
DICPCG:  Solving for cellDisplacementy, Initial residual = 0.00450269, Final residual = 1.74834e-14, No Iterations 1
PIMPLE: iteration 2
    Point usage OK.
    Upper triangular ordering OK.
    Topological cell zip-up check OK.
    Face vertices OK.
    Face-face connectivity OK.
    Mesh topology OK.
    Boundary openness (-8.90891e-19 -1.78178e-18 5.31904e-16) OK.
 ***High aspect ratio cells found, Max aspect ratio: 3.53985e+98, number of cells 2293
    Minimum face area = 2.97343e-09. Maximum face area = 1.17567.  Face area magnitudes OK.
 ***Zero or negative cell volume detected.  Minimum negative volume: -0.000116128, Number of negative volume cells: 593
    Mesh non-orthogonality Max: 179.76 average: 35.3744
   *Number of severely non-orthogonal (> 70 degrees) faces: 1152.
 ***Number of non-orthogonality errors: 932.
 ***Error in face pyramids: 3118 faces are incorrectly oriented.
 ***Max skewness = 4067.11, 77 highly skew faces detected which may impair the quality of the results
    Failed 5 mesh geometry checks.
    Failed 1 mesh checks.
ExecutionTime = 132.82 s  ClockTime = 133 s

Time = 1.192
PIMPLE: iteration 1
angle antes: 0.263693
oldOmega        -2.27145;
omega           -2.27058;
error           0.0863065;
errorIntegral   0;
angle           0.261423;
DICPCG:  Solving for cellDisplacementx, Initial residual = 0.00331192, Final residual = 4.36687e-15, No Iterations 1
DICPCG:  Solving for cellDisplacementy, Initial residual = 0.00474125, Final residual = 7.1933e-15, No Iterations 1
PIMPLE: iteration 2
    Point usage OK.
    Upper triangular ordering OK.
    Topological cell zip-up check OK.
    Face vertices OK.
    Face-face connectivity OK.
    Mesh topology OK.
    Boundary openness (-8.90892e-19 0 9.33171e-16) OK.
 ***High aspect ratio cells found, Max aspect ratio: 3.53399e+98, number of cells 2306
    Minimum face area = 5.86663e-10. Maximum face area = 1.17567.  Face area magnitudes OK.
 ***Zero or negative cell volume detected.  Minimum negative volume: -0.000114761, Number of negative volume cells: 606
    Mesh non-orthogonality Max: 179.804 average: 35.5317
   *Number of severely non-orthogonal (> 70 degrees) faces: 1171.
 ***Number of non-orthogonality errors: 963.
 ***Error in face pyramids: 3195 faces are incorrectly oriented.
 ***Max skewness = 179.109, 83 highly skew faces detected which may impair the quality of the results
    Failed 5 mesh geometry checks.
    Failed 1 mesh checks.
ExecutionTime = 132.92 s  ClockTime = 133 s

Time = 1.193
PIMPLE: iteration 1
angle antes: 0.261423
oldOmega        -2.27058;
omega           -2.2697;
error           0.0885771;
errorIntegral   0;
angle           0.259153;
DICPCG:  Solving for cellDisplacementx, Initial residual = 0.00344678, Final residual = 6.72496e-15, No Iterations 1
DICPCG:  Solving for cellDisplacementy, Initial residual = 0.00496293, Final residual = 1.47633e-14, No Iterations 1
PIMPLE: iteration 2
    Point usage OK.
    Upper triangular ordering OK.
    Topological cell zip-up check OK.
    Face vertices OK.
    Face-face connectivity OK.
    Mesh topology OK.
    Boundary openness (-8.90891e-19 0 -1.19808e-15) OK.
 ***High aspect ratio cells found, Max aspect ratio: 3.53995e+98, number of cells 2284
    Minimum face area = 4.98963e-09. Maximum face area = 1.17568.  Face area magnitudes OK.
 ***Zero or negative cell volume detected.  Minimum negative volume: -0.000115555, Number of negative volume cells: 601
    Mesh non-orthogonality Max: 179.943 average: 35.5677
   *Number of severely non-orthogonal (> 70 degrees) faces: 1166.
 ***Number of non-orthogonality errors: 959.
 ***Error in face pyramids: 3161 faces are incorrectly oriented.
 ***Max skewness = 2254.54, 82 highly skew faces detected which may impair the quality of the results
    Failed 5 mesh geometry checks.
    Failed 1 mesh checks.
ExecutionTime = 133.03 s  ClockTime = 134 s

Time = 1.194
PIMPLE: iteration 1
angle antes: 0.259153
oldOmega        -2.2697;
omega           -2.26879;
error           0.0908468;
errorIntegral   0;
angle           0.256884;
DICPCG:  Solving for cellDisplacementx, Initial residual = 0.00346315, Final residual = 4.13175e-15, No Iterations 1
DICPCG:  Solving for cellDisplacementy, Initial residual = 0.00510754, Final residual = 7.48196e-15, No Iterations 1
PIMPLE: iteration 2
    Point usage OK.
    Upper triangular ordering OK.
    Topological cell zip-up check OK.
    Face vertices OK.
    Face-face connectivity OK.
    Mesh topology OK.
    Boundary openness (-8.90892e-19 0 -4.07326e-15) OK.
 ***High aspect ratio cells found, Max aspect ratio: 3.56267e+98, number of cells 2293
    Minimum face area = 3.77762e-09. Maximum face area = 1.17568.  Face area magnitudes OK.
 ***Zero or negative cell volume detected.  Minimum negative volume: -0.000115519, Number of negative volume cells: 608
    Mesh non-orthogonality Max: 179.891 average: 35.6585
   *Number of severely non-orthogonal (> 70 degrees) faces: 1207.
 ***Number of non-orthogonality errors: 961.
 ***Error in face pyramids: 3215 faces are incorrectly oriented.
 ***Max skewness = 774.663, 79 highly skew faces detected which may impair the quality of the results
    Failed 5 mesh geometry checks.
    Failed 1 mesh checks.
ExecutionTime = 133.13 s  ClockTime = 134 s

Time = 1.195
PIMPLE: iteration 1
angle antes: 0.256884
oldOmega        -2.26879;
omega           -2.26786;
error           0.0931156;
errorIntegral   0;
angle           0.254617;
DICPCG:  Solving for cellDisplacementx, Initial residual = 0.00311174, Final residual = 6.03101e-15, No Iterations 1
DICPCG:  Solving for cellDisplacementy, Initial residual = 0.00461534, Final residual = 1.07319e-14, No Iterations 1
PIMPLE: iteration 2
    Point usage OK.
    Upper triangular ordering OK.
    Topological cell zip-up check OK.
    Face vertices OK.
    Face-face connectivity OK.
    Mesh topology OK.
    Boundary openness (-8.90892e-19 0 -1.22603e-15) OK.
 ***High aspect ratio cells found, Max aspect ratio: 3.55488e+98, number of cells 2287
    Minimum face area = 1.33237e-09. Maximum face area = 1.17568.  Face area magnitudes OK.
 ***Zero or negative cell volume detected.  Minimum negative volume: -0.000117283, Number of negative volume cells: 588
    Mesh non-orthogonality Max: 179.928 average: 35.5938
   *Number of severely non-orthogonal (> 70 degrees) faces: 1198.
 ***Number of non-orthogonality errors: 941.
 ***Error in face pyramids: 3099 faces are incorrectly oriented.
 ***Max skewness = 423.405, 88 highly skew faces detected which may impair the quality of the results
    Failed 5 mesh geometry checks.
    Failed 1 mesh checks.
ExecutionTime = 133.24 s  ClockTime = 134 s

Time = 1.196
PIMPLE: iteration 1
angle antes: 0.254617
oldOmega        -2.26786;
omega           -2.2669;
error           0.0953835;
errorIntegral   0;
angle           0.25235;
DICPCG:  Solving for cellDisplacementx, Initial residual = 0.00319682, Final residual = 4.53917e-15, No Iterations 1
DICPCG:  Solving for cellDisplacementy, Initial residual = 0.0048335, Final residual = 1.11608e-14, No Iterations 1
PIMPLE: iteration 2
    Point usage OK.
    Upper triangular ordering OK.
    Topological cell zip-up check OK.
    Face vertices OK.
    Face-face connectivity OK.
    Mesh topology OK.
    Boundary openness (-8.9089e-19 0 2.97541e-15) OK.
 ***High aspect ratio cells found, Max aspect ratio: 3.59791e+98, number of cells 2292
    Minimum face area = 2.7898e-11. Maximum face area = 1.17569.  Face area magnitudes OK.
 ***Zero or negative cell volume detected.  Minimum negative volume: -0.000115975, Number of negative volume cells: 580
    Mesh non-orthogonality Max: 179.941 average: 35.4554
   *Number of severely non-orthogonal (> 70 degrees) faces: 1194.
 ***Number of non-orthogonality errors: 928.
 ***Error in face pyramids: 3053 faces are incorrectly oriented.
 ***Max skewness = 149.143, 82 highly skew faces detected which may impair the quality of the results
    Failed 5 mesh geometry checks.
    Failed 1 mesh checks.
ExecutionTime = 133.35 s  ClockTime = 134 s

Time = 1.197
PIMPLE: iteration 1
angle antes: 0.25235
oldOmega        -2.2669;
omega           -2.26593;
error           0.0976504;
errorIntegral   0;
angle           0.250084;
DICPCG:  Solving for cellDisplacementx, Initial residual = 0.00302144, Final residual = 5.81329e-15, No Iterations 1
DICPCG:  Solving for cellDisplacementy, Initial residual = 0.00460194, Final residual = 5.95904e-15, No Iterations 1
PIMPLE: iteration 2
    Point usage OK.
    Upper triangular ordering OK.
    Topological cell zip-up check OK.
    Face vertices OK.
    Face-face connectivity OK.
    Mesh topology OK.
    Boundary openness (-8.90892e-19 1.78178e-18 5.13934e-16) OK.
 ***High aspect ratio cells found, Max aspect ratio: 3.59162e+98, number of cells 2279
    Minimum face area = 3.44152e-10. Maximum face area = 1.17569.  Face area magnitudes OK.
 ***Zero or negative cell volume detected.  Minimum negative volume: -0.000116336, Number of negative volume cells: 589
    Mesh non-orthogonality Max: 179.981 average: 35.6261
   *Number of severely non-orthogonal (> 70 degrees) faces: 1179.
 ***Number of non-orthogonality errors: 944.
 ***Error in face pyramids: 3118 faces are incorrectly oriented.
 ***Max skewness = 148.572, 81 highly skew faces detected which may impair the quality of the results
    Failed 5 mesh geometry checks.
    Failed 1 mesh checks.
ExecutionTime = 133.45 s  ClockTime = 134 s

Time = 1.198
PIMPLE: iteration 1
angle antes: 0.250084
oldOmega        -2.26593;
omega           -2.26493;
error           0.0999163;
errorIntegral   0;
angle           0.247819;
DICPCG:  Solving for cellDisplacementx, Initial residual = 0.00314456, Final residual = 5.24253e-15, No Iterations 1
DICPCG:  Solving for cellDisplacementy, Initial residual = 0.00486088, Final residual = 1.21685e-14, No Iterations 1
PIMPLE: iteration 2
    Point usage OK.
    Upper triangular ordering OK.
    Topological cell zip-up check OK.
    Face vertices OK.
    Face-face connectivity OK.
    Mesh topology OK.
    Boundary openness (-8.90891e-19 0 5.00502e-16) OK.
 ***High aspect ratio cells found, Max aspect ratio: 3.59955e+98, number of cells 2282
    Minimum face area = 4.92305e-09. Maximum face area = 1.17569.  Face area magnitudes OK.
 ***Zero or negative cell volume detected.  Minimum negative volume: -0.000115844, Number of negative volume cells: 582
    Mesh non-orthogonality Max: 179.69 average: 35.4713
   *Number of severely non-orthogonal (> 70 degrees) faces: 1185.
 ***Number of non-orthogonality errors: 940.
 ***Error in face pyramids: 3073 faces are incorrectly oriented.
 ***Max skewness = 189.461, 73 highly skew faces detected which may impair the quality of the results
    Failed 5 mesh geometry checks.
    Failed 1 mesh checks.
ExecutionTime = 133.56 s  ClockTime = 134 s

Time = 1.199
PIMPLE: iteration 1
angle antes: 0.247819
oldOmega        -2.26493;
omega           -2.26391;
error           0.102181;
errorIntegral   0;
angle           0.245555;
DICPCG:  Solving for cellDisplacementx, Initial residual = 0.00317804, Final residual = 7.38579e-15, No Iterations 1
DICPCG:  Solving for cellDisplacementy, Initial residual = 0.00499819, Final residual = 1.63097e-14, No Iterations 1
PIMPLE: iteration 2
    Point usage OK.
    Upper triangular ordering OK.
    Topological cell zip-up check OK.
    Face vertices OK.
    Face-face connectivity OK.
    Mesh topology OK.
    Boundary openness (-8.90892e-19 0 7.18655e-16) OK.
 ***High aspect ratio cells found, Max aspect ratio: 3.53923e+98, number of cells 2264
    Minimum face area = 1.57582e-09. Maximum face area = 1.1757.  Face area magnitudes OK.
 ***Zero or negative cell volume detected.  Minimum negative volume: -0.000116788, Number of negative volume cells: 551
    Mesh non-orthogonality Max: 179.669 average: 35.2655
   *Number of severely non-orthogonal (> 70 degrees) faces: 1183.
 ***Number of non-orthogonality errors: 902.
 ***Error in face pyramids: 2910 faces are incorrectly oriented.
 ***Max skewness = 564.976, 85 highly skew faces detected which may impair the quality of the results
    Failed 5 mesh geometry checks.
    Failed 1 mesh checks.
ExecutionTime = 133.66 s  ClockTime = 134 s

Time = 1.2
PIMPLE: iteration 1
angle antes: 0.245555
oldOmega        -2.26391;
omega           -2.26286;
error           0.104445;
errorIntegral   0;
angle           0.243292;
DICPCG:  Solving for cellDisplacementx, Initial residual = 0.0029468, Final residual = 4.03343e-15, No Iterations 1
DICPCG:  Solving for cellDisplacementy, Initial residual = 0.00464663, Final residual = 1.24419e-14, No Iterations 1
PIMPLE: iteration 2
    Point usage OK.
    Upper triangular ordering OK.
    Topological cell zip-up check OK.
    Face vertices OK.
    Face-face connectivity OK.
    Mesh topology OK.
    Boundary openness (-8.90891e-19 -1.78178e-18 2.16619e-15) OK.
 ***High aspect ratio cells found, Max aspect ratio: 3.5982e+98, number of cells 2294
    Minimum face area = 7.25626e-10. Maximum face area = 1.1757.  Face area magnitudes OK.
 ***Zero or negative cell volume detected.  Minimum negative volume: -0.00011669, Number of negative volume cells: 568
    Mesh non-orthogonality Max: 179.986 average: 35.4307
   *Number of severely non-orthogonal (> 70 degrees) faces: 1213.
 ***Number of non-orthogonality errors: 922.
 ***Error in face pyramids: 3004 faces are incorrectly oriented.
 ***Max skewness = 191.932, 89 highly skew faces detected which may impair the quality of the results
    Failed 5 mesh geometry checks.
    Failed 1 mesh checks.
ExecutionTime = 133.83 s  ClockTime = 134 s

End

