/*---------------------------------------------------------------------------*\
| =========                 |                                                 |
| \\      /  F ield         | OpenFOAM: The Open Source CFD Toolbox           |
|  \\    /   O peration     | Version:  v2012                                 |
|   \\  /    A nd           | Website:  www.openfoam.com                      |
|    \\/     M anipulation  |                                                 |
\*---------------------------------------------------------------------------*/
Build  : _7bdb509494-20201222 OPENFOAM=2012
Arch   : "LSB;label=32;scalar=64"
Exec   : /opt/OpenFOAM/OpenFOAM-v2012/platforms/linux64GccDPInt32Opt/bin/simpleFoam
Date   : Jul 12 2021
Time   : 00:38:25
Host   : s319791
PID    : 36614
I/O    : uncollated
Case   : /home/s319791/IRP-local/solverDevelopment/pimpleRemeshFoam/steadyNACA
nProcs : 1
trapFpe: Floating point exception trapping enabled (FOAM_SIGFPE).
fileModificationChecking : Monitoring run-time modified files using timeStampMaster (fileModificationSkew 5, maxFileModificationPolls 20)
allowSystemOperations : Allowing user-supplied system call operations

// * * * * * * * * * * * * * * * * * * * * * * * * * * * * * * * * * * * * * //
Create time

Create mesh for time = 0


SIMPLE: convergence criteria
    field U	 tolerance 0.0001
    field p	 tolerance 0.0001
    field k	 tolerance 0.0001
    field omega	 tolerance 0.0001
    field epsilon	 tolerance 0.0001
    field nuTilda	 tolerance 0.0001
    field Rethetat	 tolerance 0.0001
    field gammaInt	 tolerance 0.0001
    field kl	 tolerance 0.0001
    field kt	 tolerance 0.0001
    field R	 tolerance 0.0001

Reading field p

Reading field U

Reading/calculating face flux field phi

Selecting incompressible transport model Newtonian
Selecting turbulence model type RAS
Selecting RAS turbulence model kOmegaSST
Selecting patchDistMethod meshWave
RAS
{
    RASModel        kOmegaSST;
    turbulence      on;
    printCoeffs     on;
    alphaK1         0.85;
    alphaK2         1;
    alphaOmega1     0.5;
    alphaOmega2     0.856;
    gamma1          0.555556;
    gamma2          0.44;
    beta1           0.075;
    beta2           0.0828;
    betaStar        0.09;
    a1              0.31;
    b1              1;
    c1              10;
    F3              false;
    decayControl    false;
    kInf            0;
    omegaInf        0;
}

No MRF models present

No finite volume options present

Starting time loop

forceCoeffs forceCoeffs:
    rho: rhoInf
    Freestream density (rhoInf) set to 1
    Not including porosity effects

Selecting runTimeCondition average
Selecting runTimeCondition maxDuration
Time = 1

DILUPBiCGStab:  Solving for Ux, Initial residual = 1, Final residual = 0.00334608, No Iterations 2
DILUPBiCGStab:  Solving for Uy, Initial residual = 1, Final residual = 0.00301634, No Iterations 2
GAMG:  Solving for p, Initial residual = 1, Final residual = 0.00789901, No Iterations 11
GAMG:  Solving for p, Initial residual = 0.00406067, Final residual = 3.25079e-05, No Iterations 2
GAMG:  Solving for p, Initial residual = 0.000302136, Final residual = 1.8561e-06, No Iterations 5
time step continuity errors : sum local = 1.3971e-06, global = 7.67502e-08, cumulative = 7.67502e-08
DILUPBiCGStab:  Solving for omega, Initial residual = 0.120468, Final residual = 0.000246929, No Iterations 1
DILUPBiCGStab:  Solving for k, Initial residual = 1, Final residual = 0.00183637, No Iterations 2
ExecutionTime = 0.55 s  ClockTime = 0 s

forceCoeffs forceCoeffs execute:
    Coefficients
        Cd       : 6.9303	(pressure: 6.25272	viscous: 0.677585)
        Cs       : -8.99853e-22	(pressure: 2.73901e-21	viscous: -3.63887e-21)
        Cl       : 0.0131521	(pressure: 0.013152	viscous: 7.36252e-08)
        CmRoll       : 0.00657605	(pressure: 0.00657601	viscous: 3.68126e-08)
        CmPitch       : -0.00965402	(pressure: -0.00965399	viscous: -2.20813e-08)
        CmYaw       : -3.46515	(pressure: -3.12636	viscous: -0.338793)
        Cd(f)    : 3.47173
        Cd(r)    : 3.45857
        Cs(f)    : -3.46515
        Cs(r)    : 3.46515
        Cl(f)    : -0.00307797
        Cl(r)    : 0.0162301
runTimeControl runTimeControl2 output:
    maxDuration: conditions1
        Completed 0 out of 500
    Conditions not met

Time = 2

DILUPBiCGStab:  Solving for Ux, Initial residual = 0.145817, Final residual = 0.000932874, No Iterations 3
DILUPBiCGStab:  Solving for Uy, Initial residual = 0.606886, Final residual = 0.00249283, No Iterations 3
GAMG:  Solving for p, Initial residual = 0.190113, Final residual = 0.00147339, No Iterations 3
GAMG:  Solving for p, Initial residual = 0.00466546, Final residual = 4.48573e-05, No Iterations 12
GAMG:  Solving for p, Initial residual = 0.00542614, Final residual = 5.3679e-05, No Iterations 5
time step continuity errors : sum local = 1.06858e-05, global = -1.57885e-07, cumulative = -8.11349e-08
DILUPBiCGStab:  Solving for omega, Initial residual = 0.0119369, Final residual = 4.97083e-05, No Iterations 1
bounding omega, min: -19.039 max: 1.29662e+07 average: 46286.4
DILUPBiCGStab:  Solving for k, Initial residual = 0.341666, Final residual = 0.000647202, No Iterations 2
ExecutionTime = 0.77 s  ClockTime = 0 s

forceCoeffs forceCoeffs execute:
    Coefficients
        Cd       : 2.83235	(pressure: 3.14627	viscous: -0.313919)
        Cs       : -1.01351e-20	(pressure: 1.24723e-21	viscous: -1.13823e-20)
        Cl       : 0.00630846	(pressure: 0.00618149	viscous: 0.000126965)
        CmRoll       : 0.00315423	(pressure: 0.00309075	viscous: 6.34826e-05)
        CmPitch       : -0.00572333	(pressure: -0.00569356	viscous: -2.97714e-05)
        CmYaw       : -1.41618	(pressure: -1.57314	viscous: 0.156959)
        Cd(f)    : 1.41933
        Cd(r)    : 1.41302
        Cs(f)    : -1.41618
        Cs(r)    : 1.41618
        Cl(f)    : -0.0025691
        Cl(r)    : 0.00887756
runTimeControl runTimeControl2 output:
    maxDuration: conditions1
        Completed 1 out of 500
    Conditions not met

Time = 3

DILUPBiCGStab:  Solving for Ux, Initial residual = 0.00465259, Final residual = 3.97906e-05, No Iterations 3
DILUPBiCGStab:  Solving for Uy, Initial residual = 0.323856, Final residual = 0.00154236, No Iterations 3
GAMG:  Solving for p, Initial residual = 0.298016, Final residual = 0.00189682, No Iterations 4
GAMG:  Solving for p, Initial residual = 0.00714306, Final residual = 6.20513e-05, No Iterations 13
GAMG:  Solving for p, Initial residual = 0.00414069, Final residual = 3.76589e-05, No Iterations 4
time step continuity errors : sum local = 1.15149e-05, global = -2.09802e-07, cumulative = -2.90937e-07
DILUPBiCGStab:  Solving for omega, Initial residual = 0.039031, Final residual = 2.30139e-05, No Iterations 1
bounding omega, min: -20887.1 max: 5.50402e+06 average: 30462.2
DILUPBiCGStab:  Solving for k, Initial residual = 0.129532, Final residual = 0.000300591, No Iterations 2
ExecutionTime = 1 s  ClockTime = 1 s

forceCoeffs forceCoeffs execute:
    Coefficients
        Cd       : 0.132584	(pressure: 0.449095	viscous: -0.316511)
        Cs       : 1.35646e-21	(pressure: 6.80977e-22	viscous: 6.75481e-22)
        Cl       : -0.0317291	(pressure: -0.0382165	viscous: 0.00648742)
        CmRoll       : -0.0158646	(pressure: -0.0191083	viscous: 0.00324371)
        CmPitch       : -0.00450574	(pressure: -0.00458966	viscous: 8.39227e-05)
        CmYaw       : -0.0662921	(pressure: -0.224548	viscous: 0.158256)
        Cd(f)    : 0.0504275
        Cd(r)    : 0.0821566
        Cs(f)    : -0.0662921
        Cs(r)    : 0.0662921
        Cl(f)    : -0.0203703
        Cl(r)    : -0.0113588
runTimeControl runTimeControl2 output:
    maxDuration: conditions1
        Completed 2 out of 500
    Conditions not met

Time = 4

DILUPBiCGStab:  Solving for Ux, Initial residual = 0.00525709, Final residual = 2.42932e-05, No Iterations 3
DILUPBiCGStab:  Solving for Uy, Initial residual = 0.165985, Final residual = 0.000845523, No Iterations 3
GAMG:  Solving for p, Initial residual = 0.40563, Final residual = 0.00305117, No Iterations 4
GAMG:  Solving for p, Initial residual = 0.00129029, Final residual = 1.23126e-05, No Iterations 19
GAMG:  Solving for p, Initial residual = 0.00108053, Final residual = 1.06704e-05, No Iterations 3
time step continuity errors : sum local = 9.01718e-06, global = -4.86871e-07, cumulative = -7.77807e-07
DILUPBiCGStab:  Solving for omega, Initial residual = 1, Final residual = 0.00602202, No Iterations 1
bounding omega, min: -5880.58 max: 4.02737e+19 average: 1.81634e+15
DILUPBiCGStab:  Solving for k, Initial residual = 0.98272, Final residual = 3.20833e-11, No Iterations 1
ExecutionTime = 1.24 s  ClockTime = 1 s

forceCoeffs forceCoeffs execute:
    Coefficients
        Cd       : -2.422	(pressure: -2.30423	viscous: -0.117773)
        Cs       : 5.44595e-21	(pressure: -2.31143e-22	viscous: 5.67709e-21)
        Cl       : -0.0146759	(pressure: -0.0197534	viscous: 0.00507758)
        CmRoll       : -0.00733793	(pressure: -0.00987672	viscous: 0.00253879)
        CmPitch       : 0.00294449	(pressure: 0.00243187	viscous: 0.000512616)
        CmYaw       : 1.211	(pressure: 1.15211	viscous: 0.0588864)
        Cd(f)    : -1.21834
        Cd(r)    : -1.20366
        Cs(f)    : 1.211
        Cs(r)    : -1.211
        Cl(f)    : -0.00439344
        Cl(r)    : -0.0102824
runTimeControl runTimeControl2 output:
    maxDuration: conditions1
        Completed 3 out of 500
    Conditions not met

Time = 5

DILUPBiCGStab:  Solving for Ux, Initial residual = 0.00864349, Final residual = 6.13255e-05, No Iterations 3
DILUPBiCGStab:  Solving for Uy, Initial residual = 0.17361, Final residual = 0.00110849, No Iterations 3
GAMG:  Solving for p, Initial residual = 0.0376288, Final residual = 0.000350366, No Iterations 3
GAMG:  Solving for p, Initial residual = 0.000808789, Final residual = 7.70487e-06, No Iterations 20
GAMG:  Solving for p, Initial residual = 0.000666905, Final residual = 6.05883e-06, No Iterations 3
time step continuity errors : sum local = 3.63819e-06, global = -4.19278e-07, cumulative = -1.19709e-06
DILUPBiCGStab:  Solving for omega, Initial residual = 0.428632, Final residual = 2.84331e-17, No Iterations 1
bounding omega, min: -7.79132e+14 max: 1.61095e+19 average: 7.2652e+14
DILUPBiCGStab:  Solving for k, Initial residual = 0.272351, Final residual = 4.7218e-11, No Iterations 1
bounding k, min: -0.00117496 max: 1.0837 average: 0.00409071
ExecutionTime = 1.48 s  ClockTime = 1 s

forceCoeffs forceCoeffs execute:
    Coefficients
        Cd       : -2.39378	(pressure: -2.42169	viscous: 0.02791)
        Cs       : 4.07216e-21	(pressure: -6.68492e-22	viscous: 4.74065e-21)
        Cl       : -0.011117	(pressure: -0.0129983	viscous: 0.00188131)
        CmRoll       : -0.0055585	(pressure: -0.00649916	viscous: 0.000940657)
        CmPitch       : 0.0019071	(pressure: 0.00157315	viscous: 0.000333946)
        CmYaw       : 1.19689	(pressure: 1.21084	viscous: -0.013955)
        Cd(f)    : -1.20245
        Cd(r)    : -1.19133
        Cs(f)    : 1.19689
        Cs(r)    : -1.19689
        Cl(f)    : -0.0036514
        Cl(r)    : -0.0074656
runTimeControl runTimeControl2 output:
    maxDuration: conditions1
        Completed 4 out of 500
    Conditions not met

Time = 6

DILUPBiCGStab:  Solving for Ux, Initial residual = 0.0152274, Final residual = 0.00010225, No Iterations 3
DILUPBiCGStab:  Solving for Uy, Initial residual = 0.154698, Final residual = 0.000567641, No Iterations 3
GAMG:  Solving for p, Initial residual = 0.040394, Final residual = 0.000268789, No Iterations 4
GAMG:  Solving for p, Initial residual = 0.00191415, Final residual = 1.84859e-05, No Iterations 14
GAMG:  Solving for p, Initial residual = 0.00114493, Final residual = 9.58257e-06, No Iterations 5
time step continuity errors : sum local = 2.27664e-06, global = -1.06277e-07, cumulative = -1.30336e-06
DILUPBiCGStab:  Solving for omega, Initial residual = 0.428632, Final residual = 6.5664e-16, No Iterations 1
bounding omega, min: -2.73899e+11 max: 1.45632e+19 average: 6.16931e+14
DILUPBiCGStab:  Solving for k, Initial residual = 0.712985, Final residual = 2.40503e-11, No Iterations 1
bounding k, min: -0.000746395 max: 1.55957 average: 0.00402018
ExecutionTime = 1.71 s  ClockTime = 1 s

forceCoeffs forceCoeffs execute:
    Coefficients
        Cd       : -1.23457	(pressure: -1.33252	viscous: 0.0979549)
        Cs       : 9.68812e-22	(pressure: -5.70227e-22	viscous: 1.53904e-21)
        Cl       : -0.0151791	(pressure: -0.0154476	viscous: 0.000268539)
        CmRoll       : -0.00758953	(pressure: -0.0077238	viscous: 0.000134269)
        CmPitch       : -0.000532375	(pressure: -0.000724928	viscous: 0.000192552)
        CmYaw       : 0.617284	(pressure: 0.666261	viscous: -0.0489775)
        Cd(f)    : -0.624873
        Cd(r)    : -0.609694
        Cs(f)    : 0.617284
        Cs(r)    : -0.617284
        Cl(f)    : -0.00812191
        Cl(r)    : -0.00705716
runTimeControl runTimeControl2 output:
    maxDuration: conditions1
        Completed 5 out of 500
    Conditions not met

Time = 7

DILUPBiCGStab:  Solving for Ux, Initial residual = 0.0736224, Final residual = 0.000376636, No Iterations 3
DILUPBiCGStab:  Solving for Uy, Initial residual = 0.129116, Final residual = 0.000926894, No Iterations 3
GAMG:  Solving for p, Initial residual = 0.0561115, Final residual = 0.000469183, No Iterations 4
GAMG:  Solving for p, Initial residual = 0.00250337, Final residual = 2.20262e-05, No Iterations 19
GAMG:  Solving for p, Initial residual = 0.00117831, Final residual = 1.13553e-05, No Iterations 4
time step continuity errors : sum local = 3.14357e-06, global = 7.04578e-08, cumulative = -1.2329e-06
DILUPBiCGStab:  Solving for omega, Initial residual = 0.428601, Final residual = 1.45476e-14, No Iterations 1
bounding omega, min: -1.07385e+17 max: 3.84547e+20 average: 1.65616e+16
DILUPBiCGStab:  Solving for k, Initial residual = 0.643229, Final residual = 2.61038e-13, No Iterations 1
bounding k, min: -0.00436161 max: 1.65772 average: 0.00393555
ExecutionTime = 1.95 s  ClockTime = 2 s

forceCoeffs forceCoeffs execute:
    Coefficients
        Cd       : 0.21595	(pressure: 0.125507	viscous: 0.090443)
        Cs       : -6.39951e-22	(pressure: -5.61894e-22	viscous: -7.8057e-23)
        Cl       : 0.00599975	(pressure: 0.00690714	viscous: -0.00090739)
        CmRoll       : 0.00299987	(pressure: 0.00345357	viscous: -0.000453695)
        CmPitch       : 0.00480597	(pressure: 0.0049757	viscous: -0.00016973)
        CmYaw       : -0.107975	(pressure: -0.0627534	viscous: -0.0452215)
        Cd(f)    : 0.110975
        Cd(r)    : 0.104975
        Cs(f)    : -0.107975
        Cs(r)    : 0.107975
        Cl(f)    : 0.00780584
        Cl(r)    : -0.00180609
runTimeControl runTimeControl2 output:
    maxDuration: conditions1
        Completed 6 out of 500
    Conditions not met

Time = 8

DILUPBiCGStab:  Solving for Ux, Initial residual = 0.0385421, Final residual = 0.000375859, No Iterations 3
DILUPBiCGStab:  Solving for Uy, Initial residual = 0.100695, Final residual = 0.000372554, No Iterations 3
GAMG:  Solving for p, Initial residual = 0.16934, Final residual = 0.00163806, No Iterations 3
GAMG:  Solving for p, Initial residual = 0.00204985, Final residual = 1.99311e-05, No Iterations 21
GAMG:  Solving for p, Initial residual = 0.00114478, Final residual = 1.07099e-05, No Iterations 4
time step continuity errors : sum local = 2.07292e-06, global = 1.70722e-07, cumulative = -1.06218e-06
DILUPBiCGStab:  Solving for omega, Initial residual = 0.42862, Final residual = 9.65112e-18, No Iterations 1
bounding omega, min: -4.60472e+18 max: 1.53819e+20 average: 8.14736e+15
DILUPBiCGStab:  Solving for k, Initial residual = 0.811636, Final residual = 1.71608e-12, No Iterations 1
bounding k, min: -0.00504523 max: 1.8407 average: 0.00377396
ExecutionTime = 2.2 s  ClockTime = 2 s

forceCoeffs forceCoeffs execute:
    Coefficients
        Cd       : 0.637766	(pressure: 0.570495	viscous: 0.0672712)
        Cs       : -1.5461e-21	(pressure: -2.48945e-22	viscous: -1.29716e-21)
        Cl       : 0.00916342	(pressure: 0.0110624	viscous: -0.00189896)
        CmRoll       : 0.00458171	(pressure: 0.00553119	viscous: -0.000949478)
        CmPitch       : 0.00809088	(pressure: 0.00842164	viscous: -0.000330766)
        CmYaw       : -0.318883	(pressure: -0.285247	viscous: -0.0336356)
        Cd(f)    : 0.323465
        Cd(r)    : 0.314301
        Cs(f)    : -0.318883
        Cs(r)    : 0.318883
        Cl(f)    : 0.0126726
        Cl(r)    : -0.00350917
runTimeControl runTimeControl2 output:
    maxDuration: conditions1
        Completed 7 out of 500
    Conditions not met

Time = 9

DILUPBiCGStab:  Solving for Ux, Initial residual = 0.00977929, Final residual = 5.3595e-05, No Iterations 3
DILUPBiCGStab:  Solving for Uy, Initial residual = 0.0708274, Final residual = 0.000347049, No Iterations 3
GAMG:  Solving for p, Initial residual = 0.06721, Final residual = 0.000424188, No Iterations 4
GAMG:  Solving for p, Initial residual = 0.00308055, Final residual = 2.69452e-05, No Iterations 15
GAMG:  Solving for p, Initial residual = 0.00102593, Final residual = 9.77109e-06, No Iterations 7
time step continuity errors : sum local = 8.16164e-07, global = 1.76723e-07, cumulative = -8.8546e-07
DILUPBiCGStab:  Solving for omega, Initial residual = 0.428635, Final residual = 2.60157e-11, No Iterations 1
bounding omega, min: -2.30588e+15 max: 6.51251e+27 average: 1.45844e+23
DILUPBiCGStab:  Solving for k, Initial residual = 1, Final residual = 3.38728e-17, No Iterations 1
bounding k, min: -0.000377438 max: 1.72963 average: 0.00362978
ExecutionTime = 2.44 s  ClockTime = 2 s

forceCoeffs forceCoeffs execute:
    Coefficients
        Cd       : 0.423883	(pressure: 0.384869	viscous: 0.0390145)
        Cs       : -1.07805e-21	(pressure: -1.41456e-22	viscous: -9.36589e-22)
        Cl       : -0.00236027	(pressure: -0.000220704	viscous: -0.00213957)
        CmRoll       : -0.00118014	(pressure: -0.000110352	viscous: -0.00106978)
        CmPitch       : 0.00583715	(pressure: 0.00619785	viscous: -0.000360699)
        CmYaw       : -0.211942	(pressure: -0.192435	viscous: -0.0195072)
        Cd(f)    : 0.210762
        Cd(r)    : 0.213122
        Cs(f)    : -0.211942
        Cs(r)    : 0.211942
        Cl(f)    : 0.00465702
        Cl(r)    : -0.00701729
runTimeControl runTimeControl2 output:
    maxDuration: conditions1
        Completed 8 out of 500
    Conditions not met

Time = 10

DILUPBiCGStab:  Solving for Ux, Initial residual = 0.00503556, Final residual = 2.15638e-05, No Iterations 3
DILUPBiCGStab:  Solving for Uy, Initial residual = 0.0530675, Final residual = 0.000271258, No Iterations 3
GAMG:  Solving for p, Initial residual = 0.0785244, Final residual = 0.000539332, No Iterations 4
GAMG:  Solving for p, Initial residual = 0.00258293, Final residual = 2.31427e-05, No Iterations 18
GAMG:  Solving for p, Initial residual = 0.000884598, Final residual = 8.05364e-06, No Iterations 8
time step continuity errors : sum local = 9.37759e-07, global = 1.20075e-07, cumulative = -7.65386e-07
DILUPBiCGStab:  Solving for omega, Initial residual = 0.428588, Final residual = 9.14892e-18, No Iterations 1
bounding omega, min: -1.16389e+21 max: 2.605e+27 average: 5.83492e+22
DILUPBiCGStab:  Solving for k, Initial residual = 0.273522, Final residual = 2.84586e-19, No Iterations 1
bounding k, min: -0.00110467 max: 1.84168 average: 0.00355112
ExecutionTime = 2.7 s  ClockTime = 2 s

forceCoeffs forceCoeffs execute:
    Coefficients
        Cd       : 0.0509983	(pressure: 0.0217925	viscous: 0.0292057)
        Cs       : -6.44652e-22	(pressure: -1.5019e-22	viscous: -4.94463e-22)
        Cl       : -0.0194522	(pressure: -0.0174883	viscous: -0.00196397)
        CmRoll       : -0.00972611	(pressure: -0.00874413	viscous: -0.000981986)
        CmPitch       : -0.000105071	(pressure: 0.000218185	viscous: -0.000323256)
        CmYaw       : -0.0254991	(pressure: -0.0108963	viscous: -0.0146029)
        Cd(f)    : 0.015773
        Cd(r)    : 0.0352252
        Cs(f)    : -0.0254991
        Cs(r)    : 0.0254991
        Cl(f)    : -0.00983118
        Cl(r)    : -0.00962104
runTimeControl runTimeControl2 output:
    maxDuration: conditions1
        Completed 9 out of 500
    Conditions not met

Time = 11

DILUPBiCGStab:  Solving for Ux, Initial residual = 0.00423155, Final residual = 1.89179e-05, No Iterations 3
DILUPBiCGStab:  Solving for Uy, Initial residual = 0.0386724, Final residual = 0.000181959, No Iterations 3
GAMG:  Solving for p, Initial residual = 0.0998997, Final residual = 0.000972975, No Iterations 3
GAMG:  Solving for p, Initial residual = 0.00155936, Final residual = 1.42411e-05, No Iterations 17
GAMG:  Solving for p, Initial residual = 0.000754301, Final residual = 7.44392e-06, No Iterations 4
time step continuity errors : sum local = 1.07118e-06, global = 2.48656e-08, cumulative = -7.4052e-07
DILUPBiCGStab:  Solving for omega, Initial residual = 0.428589, Final residual = 7.34893e-18, No Iterations 1
bounding omega, min: -1.79943e+20 max: 8.79992e+39 average: 1.43347e+35
DILUPBiCGStab:  Solving for k, Initial residual = 0.0410004, Final residual = 3.04979e-30, No Iterations 1
bounding k, min: -0.00181067 max: 1.1757 average: 0.00345725
ExecutionTime = 2.94 s  ClockTime = 3 s

forceCoeffs forceCoeffs execute:
    Coefficients
        Cd       : -0.17638	(pressure: -0.205076	viscous: 0.0286961)
        Cs       : -3.50377e-22	(pressure: -1.47118e-22	viscous: -2.03259e-22)
        Cl       : -0.0301156	(pressure: -0.0289991	viscous: -0.00111644)
        CmRoll       : -0.0150578	(pressure: -0.0144996	viscous: -0.000558221)
        CmPitch       : -0.00321059	(pressure: -0.0029648	viscous: -0.000245796)
        CmYaw       : 0.0881898	(pressure: 0.102538	viscous: -0.0143481)
        Cd(f)    : -0.103248
        Cd(r)    : -0.073132
        Cs(f)    : 0.0881898
        Cs(r)    : -0.0881898
        Cl(f)    : -0.0182684
        Cl(r)    : -0.0118472
runTimeControl runTimeControl2 output:
    maxDuration: conditions1
        Completed 10 out of 500
    Conditions not met

Time = 12

DILUPBiCGStab:  Solving for Ux, Initial residual = 0.00387149, Final residual = 9.87825e-06, No Iterations 4
DILUPBiCGStab:  Solving for Uy, Initial residual = 0.0306641, Final residual = 0.000147503, No Iterations 3
GAMG:  Solving for p, Initial residual = 0.0499373, Final residual = 0.000358034, No Iterations 3
GAMG:  Solving for p, Initial residual = 0.00136832, Final residual = 1.18935e-05, No Iterations 15
GAMG:  Solving for p, Initial residual = 0.00062544, Final residual = 6.00319e-06, No Iterations 5
time step continuity errors : sum local = 6.37349e-07, global = -5.49294e-08, cumulative = -7.95449e-07
DILUPBiCGStab:  Solving for omega, Initial residual = 0.428581, Final residual = 3.77835e-31, No Iterations 1
bounding omega, min: -9.60886e+25 max: 3.51997e+39 average: 5.73387e+34
DILUPBiCGStab:  Solving for k, Initial residual = 0.0159416, Final residual = 2.1894e-25, No Iterations 1
bounding k, min: -0.00277729 max: 0.580746 average: 0.00335514
ExecutionTime = 3.17 s  ClockTime = 3 s

forceCoeffs forceCoeffs execute:
    Coefficients
        Cd       : -0.158712	(pressure: -0.188505	viscous: 0.0297937)
        Cs       : -2.5467e-22	(pressure: -9.44807e-23	viscous: -1.60189e-22)
        Cl       : -0.0233684	(pressure: -0.022788	viscous: -0.000580346)
        CmRoll       : -0.0116842	(pressure: -0.011394	viscous: -0.000290173)
        CmPitch       : -0.00167889	(pressure: -0.00155423	viscous: -0.000124659)
        CmYaw       : 0.0793558	(pressure: 0.0942527	viscous: -0.0148969)
        Cd(f)    : -0.09104
        Cd(r)    : -0.0676717
        Cs(f)    : 0.0793558
        Cs(r)    : -0.0793558
        Cl(f)    : -0.0133631
        Cl(r)    : -0.0100053
runTimeControl runTimeControl2 output:
    maxDuration: conditions1
        Completed 11 out of 500
    Conditions not met

Time = 13

DILUPBiCGStab:  Solving for Ux, Initial residual = 0.00341583, Final residual = 2.08722e-05, No Iterations 3
DILUPBiCGStab:  Solving for Uy, Initial residual = 0.029212, Final residual = 0.000158504, No Iterations 3
GAMG:  Solving for p, Initial residual = 0.0459676, Final residual = 0.000347363, No Iterations 3
GAMG:  Solving for p, Initial residual = 0.00191726, Final residual = 1.78548e-05, No Iterations 12
GAMG:  Solving for p, Initial residual = 0.000569711, Final residual = 5.16711e-06, No Iterations 9
time step continuity errors : sum local = 3.46116e-07, global = -7.12654e-08, cumulative = -8.66715e-07
DILUPBiCGStab:  Solving for omega, Initial residual = 0.428581, Final residual = 5.53584e-31, No Iterations 1
bounding omega, min: -2.28352e+24 max: 1.40799e+39 average: 2.29355e+34
DILUPBiCGStab:  Solving for k, Initial residual = 0.00643185, Final residual = 8.03277e-27, No Iterations 1
bounding k, min: -0.000926533 max: 0.284219 average: 0.00326336
ExecutionTime = 3.41 s  ClockTime = 3 s

forceCoeffs forceCoeffs execute:
    Coefficients
        Cd       : -0.0762884	(pressure: -0.104837	viscous: 0.0285488)
        Cs       : -2.68625e-22	(pressure: -2.30672e-23	viscous: -2.45558e-22)
        Cl       : -0.0146497	(pressure: -0.0142943	viscous: -0.000355311)
        CmRoll       : -0.00732483	(pressure: -0.00714717	viscous: -0.000177655)
        CmPitch       : 0.00078064	(pressure: 0.000896882	viscous: -0.000116241)
        CmYaw       : 0.0381442	(pressure: 0.0524186	viscous: -0.0142744)
        Cd(f)    : -0.045469
        Cd(r)    : -0.0308194
        Cs(f)    : 0.0381442
        Cs(r)    : -0.0381442
        Cl(f)    : -0.00654419
        Cl(r)    : -0.00810547
runTimeControl runTimeControl2 output:
    maxDuration: conditions1
        Completed 12 out of 500
    Conditions not met

Time = 14

DILUPBiCGStab:  Solving for Ux, Initial residual = 0.00332087, Final residual = 1.73035e-05, No Iterations 3
DILUPBiCGStab:  Solving for Uy, Initial residual = 0.0295278, Final residual = 0.000153246, No Iterations 3
GAMG:  Solving for p, Initial residual = 0.0530451, Final residual = 0.00040759, No Iterations 3
GAMG:  Solving for p, Initial residual = 0.00283936, Final residual = 2.58273e-05, No Iterations 14
GAMG:  Solving for p, Initial residual = 0.00108523, Final residual = 1.04238e-05, No Iterations 8
time step continuity errors : sum local = 4.07154e-07, global = -6.72344e-08, cumulative = -9.33949e-07
DILUPBiCGStab:  Solving for omega, Initial residual = 0.428581, Final residual = 1.06659e-31, No Iterations 1
bounding omega, min: -7.39485e+23 max: 5.63195e+38 average: 1.81856e+34
DILUPBiCGStab:  Solving for k, Initial residual = 0.0104474, Final residual = 1.56228e-21, No Iterations 1
bounding k, min: -0.000811026 max: 0.228458 average: 0.00314817
ExecutionTime = 3.65 s  ClockTime = 3 s

forceCoeffs forceCoeffs execute:
    Coefficients
        Cd       : 0.00413632	(pressure: -0.0225783	viscous: 0.0267146)
        Cs       : -2.66206e-22	(pressure: 2.48603e-23	viscous: -2.91067e-22)
        Cl       : -0.00667451	(pressure: -0.00617703	viscous: -0.000497479)
        CmRoll       : -0.00333725	(pressure: -0.00308851	viscous: -0.000248739)
        CmPitch       : 0.00309565	(pressure: 0.00322539	viscous: -0.000129741)
        CmYaw       : -0.00206816	(pressure: 0.0112892	viscous: -0.0133573)
        Cd(f)    : -0.00126909
        Cd(r)    : 0.00540541
        Cs(f)    : -0.00206816
        Cs(r)    : 0.00206816
        Cl(f)    : -0.000241603
        Cl(r)    : -0.0064329
runTimeControl runTimeControl2 output:
    maxDuration: conditions1
        Completed 13 out of 500
    Conditions not met

Time = 15

DILUPBiCGStab:  Solving for Ux, Initial residual = 0.00317333, Final residual = 1.65777e-05, No Iterations 3
DILUPBiCGStab:  Solving for Uy, Initial residual = 0.0256044, Final residual = 0.00014283, No Iterations 4
GAMG:  Solving for p, Initial residual = 0.0689577, Final residual = 0.000439565, No Iterations 3
GAMG:  Solving for p, Initial residual = 0.00307396, Final residual = 2.64367e-05, No Iterations 10
GAMG:  Solving for p, Initial residual = 0.00126888, Final residual = 1.17293e-05, No Iterations 5
time step continuity errors : sum local = 3.21191e-07, global = -2.3309e-08, cumulative = -9.57258e-07
DILUPBiCGStab:  Solving for omega, Initial residual = 0.428592, Final residual = 7.83866e-19, No Iterations 1
bounding omega, min: -2.80144e+36 max: 2.25278e+38 average: 7.26334e+33
DILUPBiCGStab:  Solving for k, Initial residual = 0.00442257, Final residual = 1.28265e-19, No Iterations 1
bounding k, min: -0.000361788 max: 0.171776 average: 0.00305466
ExecutionTime = 3.86 s  ClockTime = 4 s

forceCoeffs forceCoeffs execute:
    Coefficients
        Cd       : 0.0483382	(pressure: 0.0238644	viscous: 0.0244738)
        Cs       : -2.89195e-22	(pressure: 5.50464e-23	viscous: -3.44242e-22)
        Cl       : -0.0017769	(pressure: -0.00119803	viscous: -0.000578872)
        CmRoll       : -0.000888452	(pressure: -0.000599016	viscous: -0.000289436)
        CmPitch       : 0.00465711	(pressure: 0.00482594	viscous: -0.000168821)
        CmYaw       : -0.0241691	(pressure: -0.0119322	viscous: -0.0122369)
        Cd(f)    : 0.0232806
        Cd(r)    : 0.0250575
        Cs(f)    : -0.0241691
        Cs(r)    : 0.0241691
        Cl(f)    : 0.00376866
        Cl(r)    : -0.00554557
runTimeControl runTimeControl2 output:
    maxDuration: conditions1
        Completed 14 out of 500
    Conditions not met

Time = 16

DILUPBiCGStab:  Solving for Ux, Initial residual = 0.0027666, Final residual = 1.17753e-05, No Iterations 4
DILUPBiCGStab:  Solving for Uy, Initial residual = 0.0217288, Final residual = 5.64284e-05, No Iterations 4
GAMG:  Solving for p, Initial residual = 0.0888448, Final residual = 0.000529064, No Iterations 3
GAMG:  Solving for p, Initial residual = 0.0028578, Final residual = 2.84921e-05, No Iterations 9
GAMG:  Solving for p, Initial residual = 0.000772154, Final residual = 7.05656e-06, No Iterations 7
time step continuity errors : sum local = 1.95683e-07, global = 2.06328e-08, cumulative = -9.36625e-07
DILUPBiCGStab:  Solving for omega, Initial residual = 0.428592, Final residual = 4.55802e-28, No Iterations 1
bounding omega, min: -3.07788e+29 max: 8.69835e+38 average: 1.71174e+34
DILUPBiCGStab:  Solving for k, Initial residual = 0.0105418, Final residual = 4.7259e-22, No Iterations 1
bounding k, min: -0.000228 max: 0.115912 average: 0.00294947
ExecutionTime = 4.08 s  ClockTime = 4 s

forceCoeffs forceCoeffs execute:
    Coefficients
        Cd       : 0.050118	(pressure: 0.0276976	viscous: 0.0224203)
        Cs       : -2.58322e-22	(pressure: 4.67485e-23	viscous: -3.05071e-22)
        Cl       : -0.00672573	(pressure: -0.00614009	viscous: -0.000585641)
        CmRoll       : -0.00336286	(pressure: -0.00307004	viscous: -0.00029282)
        CmPitch       : 0.00451748	(pressure: 0.00469001	viscous: -0.000172539)
        CmYaw       : -0.025059	(pressure: -0.0138488	viscous: -0.0112102)
        Cd(f)    : 0.0216961
        Cd(r)    : 0.0284219
        Cs(f)    : -0.025059
        Cs(r)    : 0.025059
        Cl(f)    : 0.00115461
        Cl(r)    : -0.00788034
runTimeControl runTimeControl2 output:
    maxDuration: conditions1
        Completed 15 out of 500
    Conditions not met

Time = 17

DILUPBiCGStab:  Solving for Ux, Initial residual = 0.00249705, Final residual = 9.67247e-06, No Iterations 4
DILUPBiCGStab:  Solving for Uy, Initial residual = 0.0187062, Final residual = 0.000162786, No Iterations 3
GAMG:  Solving for p, Initial residual = 0.0959604, Final residual = 0.000612528, No Iterations 3
GAMG:  Solving for p, Initial residual = 0.00294048, Final residual = 2.8571e-05, No Iterations 10
GAMG:  Solving for p, Initial residual = 0.000731566, Final residual = 6.42631e-06, No Iterations 8
time step continuity errors : sum local = 1.80132e-07, global = 2.71144e-08, cumulative = -9.09511e-07
DILUPBiCGStab:  Solving for omega, Initial residual = 0.428584, Final residual = 5.02422e-20, No Iterations 1
bounding omega, min: -4.08389e+28 max: 3.47934e+38 average: 1.15976e+34
DILUPBiCGStab:  Solving for k, Initial residual = 0.00398437, Final residual = 4.96005e-22, No Iterations 1
bounding k, min: -9.9352e-05 max: 0.117971 average: 0.00286357
ExecutionTime = 4.31 s  ClockTime = 4 s

forceCoeffs forceCoeffs execute:
    Coefficients
        Cd       : 0.0357848	(pressure: 0.0151329	viscous: 0.0206519)
        Cs       : -2.26076e-22	(pressure: 2.77009e-23	viscous: -2.53777e-22)
        Cl       : -0.0124754	(pressure: -0.0119939	viscous: -0.000481543)
        CmRoll       : -0.00623772	(pressure: -0.00599695	viscous: -0.000240772)
        CmPitch       : 0.00364101	(pressure: 0.00378882	viscous: -0.00014781)
        CmYaw       : -0.0178924	(pressure: -0.00756644	viscous: -0.010326)
        Cd(f)    : 0.0116547
        Cd(r)    : 0.0241301
        Cs(f)    : -0.0178924
        Cs(r)    : 0.0178924
        Cl(f)    : -0.00259671
        Cl(r)    : -0.00987873
runTimeControl runTimeControl2 output:
    maxDuration: conditions1
        Completed 16 out of 500
    Conditions not met

Time = 18

DILUPBiCGStab:  Solving for Ux, Initial residual = 0.00230564, Final residual = 1.44733e-05, No Iterations 3
DILUPBiCGStab:  Solving for Uy, Initial residual = 0.0186951, Final residual = 6.76067e-05, No Iterations 4
GAMG:  Solving for p, Initial residual = 0.0923505, Final residual = 0.000575798, No Iterations 3
GAMG:  Solving for p, Initial residual = 0.00275176, Final residual = 2.25995e-05, No Iterations 10
GAMG:  Solving for p, Initial residual = 0.000691048, Final residual = 5.87833e-06, No Iterations 7
time step continuity errors : sum local = 1.6226e-07, global = 3.04911e-08, cumulative = -8.7902e-07
DILUPBiCGStab:  Solving for omega, Initial residual = 0.428593, Final residual = 1.79991e-26, No Iterations 1
bounding omega, min: -7.91805e+30 max: 2.67066e+43 average: 4.35045e+38
DILUPBiCGStab:  Solving for k, Initial residual = 0.000850499, Final residual = 9.72937e-20, No Iterations 1
bounding k, min: -0.000119309 max: 0.072801 average: 0.00278176
ExecutionTime = 4.53 s  ClockTime = 4 s

forceCoeffs forceCoeffs execute:
    Coefficients
        Cd       : 0.019994	(pressure: 0.000677322	viscous: 0.0193166)
        Cs       : -2.01846e-22	(pressure: 1.59059e-23	viscous: -2.17752e-22)
        Cl       : -0.0159167	(pressure: -0.0155781	viscous: -0.000338585)
        CmRoll       : -0.00795833	(pressure: -0.00778904	viscous: -0.000169292)
        CmPitch       : 0.00356973	(pressure: 0.00368129	viscous: -0.000111552)
        CmYaw       : -0.00999699	(pressure: -0.000338661	viscous: -0.00965832)
        Cd(f)    : 0.00203865
        Cd(r)    : 0.0179553
        Cs(f)    : -0.00999699
        Cs(r)    : 0.00999699
        Cl(f)    : -0.0043886
        Cl(r)    : -0.0115281
runTimeControl runTimeControl2 output:
    maxDuration: conditions1
        Completed 17 out of 500
    Conditions not met

Time = 19

DILUPBiCGStab:  Solving for Ux, Initial residual = 0.00221552, Final residual = 6.76087e-06, No Iterations 4
DILUPBiCGStab:  Solving for Uy, Initial residual = 0.0187845, Final residual = 8.9945e-05, No Iterations 4
GAMG:  Solving for p, Initial residual = 0.086195, Final residual = 0.000554774, No Iterations 3
GAMG:  Solving for p, Initial residual = 0.00277966, Final residual = 2.53789e-05, No Iterations 9
GAMG:  Solving for p, Initial residual = 0.000713652, Final residual = 7.11096e-06, No Iterations 6
time step continuity errors : sum local = 1.83123e-07, global = 2.41287e-08, cumulative = -8.54891e-07
DILUPBiCGStab:  Solving for omega, Initial residual = 0.428581, Final residual = 2.77046e-30, No Iterations 1
bounding omega, min: -2.35359e+30 max: 3.39119e+46 average: 5.52584e+41
DILUPBiCGStab:  Solving for k, Initial residual = 0.992465, Final residual = 2.15771e-26, No Iterations 1
bounding k, min: -7.57259e-05 max: 0.0858843 average: 0.00270826
ExecutionTime = 4.74 s  ClockTime = 4 s

forceCoeffs forceCoeffs execute:
    Coefficients
        Cd       : 0.0119841	(pressure: -0.0062846	viscous: 0.0182687)
        Cs       : -1.90694e-22	(pressure: 3.6799e-23	viscous: -2.27493e-22)
        Cl       : -0.0155534	(pressure: -0.015324	viscous: -0.00022939)
        CmRoll       : -0.00777668	(pressure: -0.00766199	viscous: -0.000114695)
        CmPitch       : 0.0038967	(pressure: 0.00396766	viscous: -7.09553e-05)
        CmYaw       : -0.00599206	(pressure: 0.0031423	viscous: -0.00913436)
        Cd(f)    : -0.00178463
        Cd(r)    : 0.0137687
        Cs(f)    : -0.00599206
        Cs(r)    : 0.00599206
        Cl(f)    : -0.00387998
        Cl(r)    : -0.0116734
runTimeControl runTimeControl2 output:
    maxDuration: conditions1
        Completed 18 out of 500
    Conditions not met

Time = 20

DILUPBiCGStab:  Solving for Ux, Initial residual = 0.00214681, Final residual = 1.45522e-05, No Iterations 3
DILUPBiCGStab:  Solving for Uy, Initial residual = 0.0185687, Final residual = 7.56017e-05, No Iterations 4
GAMG:  Solving for p, Initial residual = 0.082321, Final residual = 0.000530772, No Iterations 3
GAMG:  Solving for p, Initial residual = 0.0029271, Final residual = 2.33686e-05, No Iterations 9
GAMG:  Solving for p, Initial residual = 0.000683693, Final residual = 6.28456e-06, No Iterations 6
time step continuity errors : sum local = 1.3957e-07, global = 5.47294e-09, cumulative = -8.49418e-07
DILUPBiCGStab:  Solving for omega, Initial residual = 0.428581, Final residual = 6.20227e-17, No Iterations 1
bounding omega, min: -9.24798e+28 max: 2.15746e+48 average: 3.53651e+43
DILUPBiCGStab:  Solving for k, Initial residual = 0.249367, Final residual = 8.17686e-20, No Iterations 1
bounding k, min: -7.81274e-05 max: 0.0786639 average: 0.00264272
ExecutionTime = 4.95 s  ClockTime = 5 s

forceCoeffs forceCoeffs execute:
    Coefficients
        Cd       : 0.0123385	(pressure: -0.00508431	viscous: 0.0174228)
        Cs       : -1.71783e-22	(pressure: 3.93404e-23	viscous: -2.11123e-22)
        Cl       : -0.0152052	(pressure: -0.0150654	viscous: -0.000139802)
        CmRoll       : -0.0076026	(pressure: -0.0075327	viscous: -6.99009e-05)
        CmPitch       : 0.00473749	(pressure: 0.0047676	viscous: -3.01169e-05)
        CmYaw       : -0.00616924	(pressure: 0.00254215	viscous: -0.0087114)
        Cd(f)    : -0.00143336
        Cd(r)    : 0.0137718
        Cs(f)    : -0.00616924
        Cs(r)    : 0.00616924
        Cl(f)    : -0.00286511
        Cl(r)    : -0.0123401
runTimeControl runTimeControl2 output:
    maxDuration: conditions1
        Completed 19 out of 500
    Conditions not met

Time = 21

DILUPBiCGStab:  Solving for Ux, Initial residual = 0.0021245, Final residual = 1.839e-05, No Iterations 3
DILUPBiCGStab:  Solving for Uy, Initial residual = 0.0186054, Final residual = 0.000153648, No Iterations 3
GAMG:  Solving for p, Initial residual = 0.0834263, Final residual = 0.000536847, No Iterations 3
GAMG:  Solving for p, Initial residual = 0.00308547, Final residual = 2.47121e-05, No Iterations 9
GAMG:  Solving for p, Initial residual = 0.000676179, Final residual = 5.93747e-06, No Iterations 7
time step continuity errors : sum local = 1.15673e-07, global = 6.62886e-09, cumulative = -8.42789e-07
DILUPBiCGStab:  Solving for omega, Initial residual = 0.428581, Final residual = 2.94812e-22, No Iterations 1
bounding omega, min: -8.72656e+36 max: 8.62985e+47 average: 1.41461e+43
DILUPBiCGStab:  Solving for k, Initial residual = 0.0760947, Final residual = 1.20285e-27, No Iterations 1
bounding k, min: -9.83597e-05 max: 0.0624905 average: 0.00257516
ExecutionTime = 5.17 s  ClockTime = 5 s

forceCoeffs forceCoeffs execute:
    Coefficients
        Cd       : 0.0143068	(pressure: -0.00234717	viscous: 0.0166539)
        Cs       : -1.60559e-22	(pressure: 3.74784e-23	viscous: -1.98038e-22)
        Cl       : -0.0161169	(pressure: -0.0160194	viscous: -9.74382e-05)
        CmRoll       : -0.00805843	(pressure: -0.00800971	viscous: -4.87191e-05)
        CmPitch       : 0.0053148	(pressure: 0.00532149	viscous: -6.69291e-06)
        CmYaw       : -0.00715338	(pressure: 0.00117359	viscous: -0.00832697)
        Cd(f)    : -0.000905051
        Cd(r)    : 0.0152118
        Cs(f)    : -0.00715338
        Cs(r)    : 0.00715338
        Cl(f)    : -0.00274364
        Cl(r)    : -0.0133732
runTimeControl runTimeControl2 output:
    maxDuration: conditions1
        Completed 20 out of 500
    Conditions not met

Time = 22

DILUPBiCGStab:  Solving for Ux, Initial residual = 0.00206749, Final residual = 6.69897e-06, No Iterations 4
DILUPBiCGStab:  Solving for Uy, Initial residual = 0.0179748, Final residual = 0.000150945, No Iterations 3
GAMG:  Solving for p, Initial residual = 0.0855569, Final residual = 0.000606122, No Iterations 3
GAMG:  Solving for p, Initial residual = 0.00328135, Final residual = 3.2051e-05, No Iterations 9
GAMG:  Solving for p, Initial residual = 0.000758522, Final residual = 7.22676e-06, No Iterations 8
time step continuity errors : sum local = 1.22624e-07, global = 4.71277e-09, cumulative = -8.38077e-07
DILUPBiCGStab:  Solving for omega, Initial residual = 0.428581, Final residual = 1.27879e-37, No Iterations 1
bounding omega, min: -5.3292e+36 max: 3.45194e+47 average: 5.65842e+42
DILUPBiCGStab:  Solving for k, Initial residual = 0.0282765, Final residual = 5.65918e-21, No Iterations 1
bounding k, min: -9.8111e-05 max: 0.0499505 average: 0.00250989
ExecutionTime = 5.4 s  ClockTime = 5 s

forceCoeffs forceCoeffs execute:
    Coefficients
        Cd       : 0.0152186	(pressure: -0.000622925	viscous: 0.0158415)
        Cs       : -1.51689e-22	(pressure: 4.0361e-23	viscous: -1.9205e-22)
        Cl       : -0.0174367	(pressure: -0.017357	viscous: -7.97488e-05)
        CmRoll       : -0.00871837	(pressure: -0.00867849	viscous: -3.98744e-05)
        CmPitch       : 0.00568381	(pressure: 0.00567416	viscous: 9.65115e-06)
        CmYaw       : -0.00760929	(pressure: 0.000311462	viscous: -0.00792075)
        Cd(f)    : -0.00110908
        Cd(r)    : 0.0163277
        Cs(f)    : -0.00760929
        Cs(r)    : 0.00760929
        Cl(f)    : -0.00303456
        Cl(r)    : -0.0144022
runTimeControl runTimeControl2 output:
    maxDuration: conditions1
        Completed 21 out of 500
    Conditions not met

Time = 23

DILUPBiCGStab:  Solving for Ux, Initial residual = 0.00202659, Final residual = 7.74013e-06, No Iterations 4
DILUPBiCGStab:  Solving for Uy, Initial residual = 0.0167753, Final residual = 5.14921e-05, No Iterations 4
GAMG:  Solving for p, Initial residual = 0.0874885, Final residual = 0.000643938, No Iterations 3
GAMG:  Solving for p, Initial residual = 0.00367069, Final residual = 3.60356e-05, No Iterations 9
GAMG:  Solving for p, Initial residual = 0.000837885, Final residual = 7.09096e-06, No Iterations 8
time step continuity errors : sum local = 1.0162e-07, global = 7.19678e-09, cumulative = -8.3088e-07
DILUPBiCGStab:  Solving for omega, Initial residual = 0.428581, Final residual = 3.59877e-22, No Iterations 1
bounding omega, min: -1.022e+32 max: 1.38078e+47 average: 2.32987e+42
DILUPBiCGStab:  Solving for k, Initial residual = 0.0111421, Final residual = 2.17739e-22, No Iterations 1
bounding k, min: -0.000121449 max: 0.0464852 average: 0.00244511
ExecutionTime = 5.62 s  ClockTime = 5 s

forceCoeffs forceCoeffs execute:
    Coefficients
        Cd       : 0.0154999	(pressure: 0.000490762	viscous: 0.0150092)
        Cs       : -1.46544e-22	(pressure: 3.86248e-23	viscous: -1.85169e-22)
        Cl       : -0.0189806	(pressure: -0.0188899	viscous: -9.06251e-05)
        CmRoll       : -0.00949028	(pressure: -0.00944496	viscous: -4.53125e-05)
        CmPitch       : 0.00614185	(pressure: 0.00612308	viscous: 1.87777e-05)
        CmYaw       : -0.00774997	(pressure: -0.000245381	viscous: -0.00750459)
        Cd(f)    : -0.00174031
        Cd(r)    : 0.0172402
        Cs(f)    : -0.00774997
        Cs(r)    : 0.00774997
        Cl(f)    : -0.00334842
        Cl(r)    : -0.0156321
runTimeControl runTimeControl2 output:
    maxDuration: conditions1
        Completed 22 out of 500
    Conditions not met

Time = 24

DILUPBiCGStab:  Solving for Ux, Initial residual = 0.0019809, Final residual = 1.96699e-05, No Iterations 3
DILUPBiCGStab:  Solving for Uy, Initial residual = 0.0160217, Final residual = 0.000130106, No Iterations 3
GAMG:  Solving for p, Initial residual = 0.091701, Final residual = 0.00080436, No Iterations 3
GAMG:  Solving for p, Initial residual = 0.00400207, Final residual = 3.88649e-05, No Iterations 10
GAMG:  Solving for p, Initial residual = 0.00097106, Final residual = 8.84048e-06, No Iterations 7
time step continuity errors : sum local = 1.10296e-07, global = 5.47683e-09, cumulative = -8.25403e-07
DILUPBiCGStab:  Solving for omega, Initial residual = 0.428582, Final residual = 2.81142e-22, No Iterations 1
bounding omega, min: -3.43607e+36 max: 5.5231e+46 average: 9.31949e+41
DILUPBiCGStab:  Solving for k, Initial residual = 0.00450585, Final residual = 1.37622e-22, No Iterations 1
bounding k, min: -0.000111642 max: 0.0436555 average: 0.00238528
ExecutionTime = 5.84 s  ClockTime = 5 s

forceCoeffs forceCoeffs execute:
    Coefficients
        Cd       : 0.0150456	(pressure: 0.000844076	viscous: 0.0142015)
        Cs       : -1.47892e-22	(pressure: 2.85875e-23	viscous: -1.76479e-22)
        Cl       : -0.0200679	(pressure: -0.0199631	viscous: -0.000104858)
        CmRoll       : -0.010034	(pressure: -0.00998153	viscous: -5.2429e-05)
        CmPitch       : 0.0063476	(pressure: 0.00632057	viscous: 2.70355e-05)
        CmYaw       : -0.0075228	(pressure: -0.000422038	viscous: -0.00710076)
        Cd(f)    : -0.00251115
        Cd(r)    : 0.0175568
        Cs(f)    : -0.0075228
        Cs(r)    : 0.0075228
        Cl(f)    : -0.00368635
        Cl(r)    : -0.0163816
runTimeControl runTimeControl2 output:
    maxDuration: conditions1
        Completed 23 out of 500
    Conditions not met

Time = 25

DILUPBiCGStab:  Solving for Ux, Initial residual = 0.00192175, Final residual = 6.5027e-06, No Iterations 4
DILUPBiCGStab:  Solving for Uy, Initial residual = 0.0154649, Final residual = 0.000105078, No Iterations 3
GAMG:  Solving for p, Initial residual = 0.0976049, Final residual = 0.000890782, No Iterations 3
GAMG:  Solving for p, Initial residual = 0.00401903, Final residual = 3.68002e-05, No Iterations 9
GAMG:  Solving for p, Initial residual = 0.00113975, Final residual = 1.04103e-05, No Iterations 5
time step continuity errors : sum local = 1.28929e-07, global = 5.48659e-09, cumulative = -8.19916e-07
DILUPBiCGStab:  Solving for omega, Initial residual = 0.428582, Final residual = 3.4008e-30, No Iterations 1
bounding omega, min: -5.7888e+35 max: 2.20924e+46 average: 3.72783e+41
DILUPBiCGStab:  Solving for k, Initial residual = 0.00183616, Final residual = 3.60696e-19, No Iterations 1
bounding k, min: -9.20955e-05 max: 0.0366688 average: 0.00232307
ExecutionTime = 6.05 s  ClockTime = 6 s

forceCoeffs forceCoeffs execute:
    Coefficients
        Cd       : 0.014018	(pressure: 0.000643924	viscous: 0.0133741)
        Cs       : -1.37088e-22	(pressure: 2.49906e-23	viscous: -1.62079e-22)
        Cl       : -0.0213641	(pressure: -0.0212467	viscous: -0.000117385)
        CmRoll       : -0.0106821	(pressure: -0.0106234	viscous: -5.86927e-05)
        CmPitch       : 0.0070997	(pressure: 0.00706376	viscous: 3.5947e-05)
        CmYaw       : -0.007009	(pressure: -0.000321962	viscous: -0.00668704)
        Cd(f)    : -0.00367307
        Cd(r)    : 0.0176911
        Cs(f)    : -0.007009
        Cs(r)    : 0.007009
        Cl(f)    : -0.00358236
        Cl(r)    : -0.0177818
runTimeControl runTimeControl2 output:
    maxDuration: conditions1
        Completed 24 out of 500
    Conditions not met

Time = 26

DILUPBiCGStab:  Solving for Ux, Initial residual = 0.00185171, Final residual = 1.2089e-05, No Iterations 3
DILUPBiCGStab:  Solving for Uy, Initial residual = 0.0149515, Final residual = 7.32415e-05, No Iterations 4
GAMG:  Solving for p, Initial residual = 0.0974408, Final residual = 0.000912687, No Iterations 3
GAMG:  Solving for p, Initial residual = 0.0037868, Final residual = 3.47141e-05, No Iterations 8
GAMG:  Solving for p, Initial residual = 0.00100258, Final residual = 8.75267e-06, No Iterations 5
time step continuity errors : sum local = 1.06571e-07, global = 4.88726e-09, cumulative = -8.15029e-07
DILUPBiCGStab:  Solving for omega, Initial residual = 0.428582, Final residual = 2.74553e-21, No Iterations 1
bounding omega, min: -1.84322e+32 max: 8.83696e+45 average: 1.5243e+41
DILUPBiCGStab:  Solving for k, Initial residual = 0.000751515, Final residual = 7.00237e-24, No Iterations 1
bounding k, min: -0.000101876 max: 0.0364289 average: 0.00225934
ExecutionTime = 6.26 s  ClockTime = 6 s

forceCoeffs forceCoeffs execute:
    Coefficients
        Cd       : 0.0134523	(pressure: 0.000819354	viscous: 0.0126329)
        Cs       : -1.34091e-22	(pressure: 3.5638e-23	viscous: -1.69729e-22)
        Cl       : -0.0222601	(pressure: -0.0221396	viscous: -0.000120511)
        CmRoll       : -0.0111301	(pressure: -0.0110698	viscous: -6.02555e-05)
        CmPitch       : 0.00777634	(pressure: 0.00773047	viscous: 4.58763e-05)
        CmYaw       : -0.00672613	(pressure: -0.000409677	viscous: -0.00631645)
        Cd(f)    : -0.00440392
        Cd(r)    : 0.0178562
        Cs(f)    : -0.00672613
        Cs(r)    : 0.00672613
        Cl(f)    : -0.00335371
        Cl(r)    : -0.0189064
runTimeControl runTimeControl2 output:
    maxDuration: conditions1
        Completed 25 out of 500
    Conditions not met

Time = 27

DILUPBiCGStab:  Solving for Ux, Initial residual = 0.0017968, Final residual = 9.25253e-06, No Iterations 4
DILUPBiCGStab:  Solving for Uy, Initial residual = 0.0148518, Final residual = 7.26164e-05, No Iterations 5
GAMG:  Solving for p, Initial residual = 0.0887161, Final residual = 0.000800004, No Iterations 3
GAMG:  Solving for p, Initial residual = 0.00396403, Final residual = 3.47083e-05, No Iterations 8
GAMG:  Solving for p, Initial residual = 0.00102973, Final residual = 9.5092e-06, No Iterations 5
time step continuity errors : sum local = 1.10564e-07, global = 6.51776e-09, cumulative = -8.08511e-07
DILUPBiCGStab:  Solving for omega, Initial residual = 0.428582, Final residual = 2.14489e-21, No Iterations 1
bounding omega, min: -3.76196e+31 max: 3.53479e+45 average: 6.09753e+40
DILUPBiCGStab:  Solving for k, Initial residual = 0.000308784, Final residual = 8.98899e-24, No Iterations 1
bounding k, min: -9.29298e-05 max: 0.0363806 average: 0.00219674
ExecutionTime = 6.47 s  ClockTime = 6 s

forceCoeffs forceCoeffs execute:
    Coefficients
        Cd       : 0.0128124	(pressure: 0.000829169	viscous: 0.0119833)
        Cs       : -1.27632e-22	(pressure: 5.99464e-23	viscous: -1.87579e-22)
        Cl       : -0.0231272	(pressure: -0.0230217	viscous: -0.000105495)
        CmRoll       : -0.0115636	(pressure: -0.0115109	viscous: -5.27473e-05)
        CmPitch       : 0.00857194	(pressure: 0.00851366	viscous: 5.82832e-05)
        CmYaw       : -0.00640622	(pressure: -0.000414584	viscous: -0.00599164)
        Cd(f)    : -0.00515738
        Cd(r)    : 0.0179698
        Cs(f)    : -0.00640622
        Cs(r)    : 0.00640622
        Cl(f)    : -0.00299166
        Cl(r)    : -0.0201355
runTimeControl runTimeControl2 output:
    maxDuration: conditions1
        Completed 26 out of 500
    Conditions not met

Time = 28

DILUPBiCGStab:  Solving for Ux, Initial residual = 0.00174676, Final residual = 5.62451e-06, No Iterations 4
DILUPBiCGStab:  Solving for Uy, Initial residual = 0.0146692, Final residual = 0.000130051, No Iterations 3
GAMG:  Solving for p, Initial residual = 0.0832447, Final residual = 0.000690867, No Iterations 3
GAMG:  Solving for p, Initial residual = 0.00387123, Final residual = 2.88298e-05, No Iterations 8
GAMG:  Solving for p, Initial residual = 0.000922539, Final residual = 8.0488e-06, No Iterations 5
time step continuity errors : sum local = 8.68353e-08, global = 5.62133e-09, cumulative = -8.0289e-07
DILUPBiCGStab:  Solving for omega, Initial residual = 0.428582, Final residual = 1.6757e-21, No Iterations 1
bounding omega, min: -7.12401e+31 max: 1.41391e+45 average: 2.43943e+40
DILUPBiCGStab:  Solving for k, Initial residual = 0.000128943, Final residual = 2.88567e-24, No Iterations 1
bounding k, min: -8.23265e-05 max: 0.0451458 average: 0.00213021
ExecutionTime = 6.68 s  ClockTime = 6 s

forceCoeffs forceCoeffs execute:
    Coefficients
        Cd       : 0.0125946	(pressure: 0.00118834	viscous: 0.0114063)
        Cs       : -1.18249e-22	(pressure: 8.5319e-23	viscous: -2.03568e-22)
        Cl       : -0.0236362	(pressure: -0.0235458	viscous: -9.04138e-05)
        CmRoll       : -0.0118181	(pressure: -0.0117729	viscous: -4.52069e-05)
        CmPitch       : 0.00897053	(pressure: 0.00890185	viscous: 6.86731e-05)
        CmYaw       : -0.00629731	(pressure: -0.00059417	viscous: -0.00570314)
        Cd(f)    : -0.00552081
        Cd(r)    : 0.0181154
        Cs(f)    : -0.00629731
        Cs(r)    : 0.00629731
        Cl(f)    : -0.00284759
        Cl(r)    : -0.0207886
runTimeControl runTimeControl2 output:
    maxDuration: conditions1
        Completed 27 out of 500
    Conditions not met

Time = 29

DILUPBiCGStab:  Solving for Ux, Initial residual = 0.00170324, Final residual = 1.29066e-05, No Iterations 3
DILUPBiCGStab:  Solving for Uy, Initial residual = 0.0143757, Final residual = 1.26553e-05, No Iterations 5
GAMG:  Solving for p, Initial residual = 0.0803006, Final residual = 0.000673921, No Iterations 3
GAMG:  Solving for p, Initial residual = 0.00358008, Final residual = 3.31652e-05, No Iterations 8
GAMG:  Solving for p, Initial residual = 0.000950175, Final residual = 8.80268e-06, No Iterations 5
time step continuity errors : sum local = 8.88747e-08, global = 6.7872e-09, cumulative = -7.96103e-07
DILUPBiCGStab:  Solving for omega, Initial residual = 0.428582, Final residual = 2.94588e-21, No Iterations 1
bounding omega, min: -3.03502e+27 max: 5.65566e+44 average: 9.75772e+39
DILUPBiCGStab:  Solving for k, Initial residual = 5.31786e-05, Final residual = 4.64868e-25, No Iterations 1
bounding k, min: -7.92436e-05 max: 0.0475023 average: 0.00206352
ExecutionTime = 6.89 s  ClockTime = 7 s

forceCoeffs forceCoeffs execute:
    Coefficients
        Cd       : 0.0125109	(pressure: 0.00162442	viscous: 0.0108864)
        Cs       : -1.13225e-22	(pressure: 1.02092e-22	viscous: -2.15317e-22)
        Cl       : -0.0239894	(pressure: -0.0239179	viscous: -7.14945e-05)
        CmRoll       : -0.0119947	(pressure: -0.011959	viscous: -3.57472e-05)
        CmPitch       : 0.00908825	(pressure: 0.00901103	viscous: 7.72182e-05)
        CmYaw       : -0.00625543	(pressure: -0.000812211	viscous: -0.00544322)
        Cd(f)    : -0.00573928
        Cd(r)    : 0.0182501
        Cs(f)    : -0.00625543
        Cs(r)    : 0.00625543
        Cl(f)    : -0.00290646
        Cl(r)    : -0.021083
runTimeControl runTimeControl2 output:
    maxDuration: conditions1
        Completed 28 out of 500
    Conditions not met

Time = 30

DILUPBiCGStab:  Solving for Ux, Initial residual = 0.00165877, Final residual = 5.26554e-06, No Iterations 4
DILUPBiCGStab:  Solving for Uy, Initial residual = 0.013969, Final residual = 5.03507e-05, No Iterations 4
GAMG:  Solving for p, Initial residual = 0.0778336, Final residual = 0.000673903, No Iterations 3
GAMG:  Solving for p, Initial residual = 0.0035825, Final residual = 3.46348e-05, No Iterations 8
GAMG:  Solving for p, Initial residual = 0.000992283, Final residual = 9.60552e-06, No Iterations 5
time step continuity errors : sum local = 9.12579e-08, global = 5.71964e-09, cumulative = -7.90383e-07
DILUPBiCGStab:  Solving for omega, Initial residual = 0.428582, Final residual = 1.26013e-25, No Iterations 1
bounding omega, min: -3.29885e+25 max: 2.26226e+44 average: 3.90752e+39
DILUPBiCGStab:  Solving for k, Initial residual = 2.19575e-05, Final residual = 6.14708e-24, No Iterations 1
bounding k, min: -0.000208347 max: 0.0420133 average: 0.00198834
ExecutionTime = 7.1 s  ClockTime = 7 s

forceCoeffs forceCoeffs execute:
    Coefficients
        Cd       : 0.0122315	(pressure: 0.00183265	viscous: 0.0103989)
        Cs       : -1.12153e-22	(pressure: 1.04215e-22	viscous: -2.16368e-22)
        Cl       : -0.0235671	(pressure: -0.0235141	viscous: -5.30346e-05)
        CmRoll       : -0.0117836	(pressure: -0.0117571	viscous: -2.65173e-05)
        CmPitch       : 0.00894168	(pressure: 0.0088583	viscous: 8.33852e-05)
        CmYaw       : -0.00611577	(pressure: -0.000916323	viscous: -0.00519944)
        Cd(f)    : -0.0056678
        Cd(r)    : 0.0178993
        Cs(f)    : -0.00611577
        Cs(r)    : 0.00611577
        Cl(f)    : -0.00284189
        Cl(r)    : -0.0207253
runTimeControl runTimeControl2 output:
    maxDuration: conditions1
        Completed 29 out of 500
    Conditions not met

Time = 31

DILUPBiCGStab:  Solving for Ux, Initial residual = 0.00161922, Final residual = 5.58554e-06, No Iterations 4
DILUPBiCGStab:  Solving for Uy, Initial residual = 0.0138908, Final residual = 4.73466e-05, No Iterations 4
GAMG:  Solving for p, Initial residual = 0.0750943, Final residual = 0.00070576, No Iterations 3
GAMG:  Solving for p, Initial residual = 0.00323075, Final residual = 2.89206e-05, No Iterations 8
GAMG:  Solving for p, Initial residual = 0.00100288, Final residual = 9.75769e-06, No Iterations 4
time step continuity errors : sum local = 9.16341e-08, global = 1.5294e-09, cumulative = -7.88854e-07
DILUPBiCGStab:  Solving for omega, Initial residual = 0.428582, Final residual = 3.99715e-22, No Iterations 1
bounding omega, min: -3.36228e+28 max: 9.04905e+43 average: 1.56301e+39
DILUPBiCGStab:  Solving for k, Initial residual = 9.11477e-06, Final residual = 2.50889e-23, No Iterations 1
bounding k, min: -9.48974e-05 max: 0.0372306 average: 0.00190677
ExecutionTime = 7.3 s  ClockTime = 7 s

forceCoeffs forceCoeffs execute:
    Coefficients
        Cd       : 0.0121612	(pressure: 0.00221437	viscous: 0.00994684)
        Cs       : -1.14933e-22	(pressure: 1.03152e-22	viscous: -2.18085e-22)
        Cl       : -0.0224011	(pressure: -0.0223659	viscous: -3.51232e-05)
        CmRoll       : -0.0112005	(pressure: -0.011183	viscous: -1.75616e-05)
        CmPitch       : 0.0084828	(pressure: 0.00839557	viscous: 8.72284e-05)
        CmYaw       : -0.0060806	(pressure: -0.00110718	viscous: -0.00497342)
        Cd(f)    : -0.00511992
        Cd(r)    : 0.0172811
        Cs(f)    : -0.0060806
        Cs(r)    : 0.0060806
        Cl(f)    : -0.00271773
        Cl(r)    : -0.0196833
runTimeControl runTimeControl2 output:
    maxDuration: conditions1
        Completed 30 out of 500
    Conditions not met

Time = 32

DILUPBiCGStab:  Solving for Ux, Initial residual = 0.00158288, Final residual = 1.00057e-05, No Iterations 3
DILUPBiCGStab:  Solving for Uy, Initial residual = 0.0135545, Final residual = 0.000104652, No Iterations 4
GAMG:  Solving for p, Initial residual = 0.0697319, Final residual = 0.000676382, No Iterations 3
GAMG:  Solving for p, Initial residual = 0.00313958, Final residual = 2.60303e-05, No Iterations 9
GAMG:  Solving for p, Initial residual = 0.000980688, Final residual = 9.1781e-06, No Iterations 4
time step continuity errors : sum local = 8.43005e-08, global = 1.65881e-09, cumulative = -7.87195e-07
DILUPBiCGStab:  Solving for omega, Initial residual = 0.428582, Final residual = 3.12581e-22, No Iterations 1
bounding omega, min: -3.87142e+30 max: 3.61962e+43 average: 6.25203e+38
DILUPBiCGStab:  Solving for k, Initial residual = 3.80185e-06, Final residual = 5.28673e-22, No Iterations 1
bounding k, min: -0.000116329 max: 0.0352223 average: 0.00182867
ExecutionTime = 7.51 s  ClockTime = 7 s

forceCoeffs forceCoeffs execute:
    Coefficients
        Cd       : 0.0114409	(pressure: 0.00196449	viscous: 0.0094764)
        Cs       : -1.19683e-22	(pressure: 9.49933e-23	viscous: -2.14676e-22)
        Cl       : -0.0207891	(pressure: -0.0207726	viscous: -1.64759e-05)
        CmRoll       : -0.0103945	(pressure: -0.0103863	viscous: -8.23795e-06)
        CmPitch       : 0.00791126	(pressure: 0.00782071	viscous: 9.05591e-05)
        CmYaw       : -0.00572044	(pressure: -0.000982246	viscous: -0.0047382)
        Cd(f)    : -0.00467409
        Cd(r)    : 0.016115
        Cs(f)    : -0.00572044
        Cs(r)    : 0.00572044
        Cl(f)    : -0.00248327
        Cl(r)    : -0.0183058
runTimeControl runTimeControl2 output:
    maxDuration: conditions1
        Completed 31 out of 500
    Conditions not met

Time = 33

DILUPBiCGStab:  Solving for Ux, Initial residual = 0.00153034, Final residual = 9.80012e-06, No Iterations 3
DILUPBiCGStab:  Solving for Uy, Initial residual = 0.0133774, Final residual = 0.000110117, No Iterations 3
GAMG:  Solving for p, Initial residual = 0.0645732, Final residual = 0.000413998, No Iterations 4
GAMG:  Solving for p, Initial residual = 0.00291994, Final residual = 2.7276e-05, No Iterations 8
GAMG:  Solving for p, Initial residual = 0.000753643, Final residual = 5.80797e-06, No Iterations 6
time step continuity errors : sum local = 5.35479e-08, global = -7.47183e-10, cumulative = -7.87942e-07
DILUPBiCGStab:  Solving for omega, Initial residual = 0.428582, Final residual = 2.43905e-21, No Iterations 1
bounding omega, min: -9.83866e+30 max: 1.44785e+43 average: 2.50082e+38
DILUPBiCGStab:  Solving for k, Initial residual = 1.5854e-06, Final residual = 1.07361e-26, No Iterations 1
bounding k, min: -7.94657e-05 max: 0.035383 average: 0.00174412
ExecutionTime = 7.73 s  ClockTime = 7 s

forceCoeffs forceCoeffs execute:
    Coefficients
        Cd       : 0.0109165	(pressure: 0.00187259	viscous: 0.00904387)
        Cs       : -1.25677e-22	(pressure: 8.07354e-23	viscous: -2.06413e-22)
        Cl       : -0.0188643	(pressure: -0.0188645	viscous: 1.94433e-07)
        CmRoll       : -0.00943217	(pressure: -0.00943226	viscous: 9.72167e-08)
        CmPitch       : 0.00717037	(pressure: 0.00707705	viscous: 9.33259e-05)
        CmYaw       : -0.00545823	(pressure: -0.000936293	viscous: -0.00452193)
        Cd(f)    : -0.00397394
        Cd(r)    : 0.0148904
        Cs(f)    : -0.00545823
        Cs(r)    : 0.00545823
        Cl(f)    : -0.00226179
        Cl(r)    : -0.0166025
runTimeControl runTimeControl2 output:
    maxDuration: conditions1
        Completed 32 out of 500
    Conditions not met

Time = 34

DILUPBiCGStab:  Solving for Ux, Initial residual = 0.00149157, Final residual = 5.88868e-06, No Iterations 4
DILUPBiCGStab:  Solving for Uy, Initial residual = 0.0131529, Final residual = 9.30542e-05, No Iterations 3
GAMG:  Solving for p, Initial residual = 0.0591566, Final residual = 0.000371411, No Iterations 4
GAMG:  Solving for p, Initial residual = 0.00273667, Final residual = 2.3287e-05, No Iterations 8
GAMG:  Solving for p, Initial residual = 0.000704629, Final residual = 6.63644e-06, No Iterations 5
time step continuity errors : sum local = 6.08514e-08, global = -3.12967e-09, cumulative = -7.91072e-07
DILUPBiCGStab:  Solving for omega, Initial residual = 0.428582, Final residual = 4.96738e-21, No Iterations 1
bounding omega, min: -1.95671e+30 max: 5.79139e+42 average: 1.00056e+38
DILUPBiCGStab:  Solving for k, Initial residual = 6.63344e-07, Final residual = 3.25337e-25, No Iterations 1
bounding k, min: -0.000122458 max: 0.0357273 average: 0.00166706
ExecutionTime = 7.94 s  ClockTime = 8 s

forceCoeffs forceCoeffs execute:
    Coefficients
        Cd       : 0.0105842	(pressure: 0.00192159	viscous: 0.00866263)
        Cs       : -1.32233e-22	(pressure: 6.83241e-23	viscous: -2.00557e-22)
        Cl       : -0.0171291	(pressure: -0.0171359	viscous: 6.79986e-06)
        CmRoll       : -0.00856453	(pressure: -0.00856793	viscous: 3.39993e-06)
        CmPitch       : 0.00647089	(pressure: 0.00637732	viscous: 9.35687e-05)
        CmYaw       : -0.00529211	(pressure: -0.000960794	viscous: -0.00433131)
        Cd(f)    : -0.00327242
        Cd(r)    : 0.0138566
        Cs(f)    : -0.00529211
        Cs(r)    : 0.00529211
        Cl(f)    : -0.00209364
        Cl(r)    : -0.0150354
runTimeControl runTimeControl2 output:
    maxDuration: conditions1
        Completed 33 out of 500
    Conditions not met

Time = 35

DILUPBiCGStab:  Solving for Ux, Initial residual = 0.00145749, Final residual = 8.86106e-06, No Iterations 3
DILUPBiCGStab:  Solving for Uy, Initial residual = 0.0131276, Final residual = 9.08746e-05, No Iterations 3
GAMG:  Solving for p, Initial residual = 0.0548676, Final residual = 0.00054565, No Iterations 3
GAMG:  Solving for p, Initial residual = 0.00257373, Final residual = 1.90826e-05, No Iterations 9
GAMG:  Solving for p, Initial residual = 0.000869145, Final residual = 7.5517e-06, No Iterations 4
time step continuity errors : sum local = 6.82973e-08, global = -2.28133e-09, cumulative = -7.93353e-07
DILUPBiCGStab:  Solving for omega, Initial residual = 0.428582, Final residual = 1.48883e-21, No Iterations 1
bounding omega, min: -1.28603e+29 max: 2.31656e+42 average: 4.00552e+37
DILUPBiCGStab:  Solving for k, Initial residual = 2.78509e-07, Final residual = 6.43912e-25, No Iterations 1
bounding k, min: -7.72582e-05 max: 0.030007 average: 0.00159368
ExecutionTime = 8.14 s  ClockTime = 8 s

forceCoeffs forceCoeffs execute:
    Coefficients
        Cd       : 0.0102565	(pressure: 0.0019585	viscous: 0.00829798)
        Cs       : -1.39048e-22	(pressure: 5.88885e-23	viscous: -1.97936e-22)
        Cl       : -0.0152512	(pressure: -0.0152591	viscous: 7.85045e-06)
        CmRoll       : -0.00762561	(pressure: -0.00762953	viscous: 3.92522e-06)
        CmPitch       : 0.00565009	(pressure: 0.00555777	viscous: 9.23189e-05)
        CmYaw       : -0.00512824	(pressure: -0.000979249	viscous: -0.00414899)
        Cd(f)    : -0.00249737
        Cd(r)    : 0.0127538
        Cs(f)    : -0.00512824
        Cs(r)    : 0.00512824
        Cl(f)    : -0.00197552
        Cl(r)    : -0.0132757
runTimeControl runTimeControl2 output:
    maxDuration: conditions1
        Completed 34 out of 500
    Conditions not met

Time = 36

DILUPBiCGStab:  Solving for Ux, Initial residual = 0.0014212, Final residual = 1.25159e-05, No Iterations 3
DILUPBiCGStab:  Solving for Uy, Initial residual = 0.0129362, Final residual = 8.83288e-05, No Iterations 3
GAMG:  Solving for p, Initial residual = 0.0512535, Final residual = 0.000503667, No Iterations 3
GAMG:  Solving for p, Initial residual = 0.00251799, Final residual = 2.27402e-05, No Iterations 8
GAMG:  Solving for p, Initial residual = 0.000821338, Final residual = 7.97285e-06, No Iterations 4
time step continuity errors : sum local = 7.10158e-08, global = -4.29597e-09, cumulative = -7.97649e-07
DILUPBiCGStab:  Solving for omega, Initial residual = 0.428582, Final residual = 5.85917e-23, No Iterations 1
bounding omega, min: -1.05941e+35 max: 3.64989e+42 average: 7.55172e+37
DILUPBiCGStab:  Solving for k, Initial residual = 1.09277e-08, Final residual = 3.58752e-28, No Iterations 1
bounding k, min: -0.000103928 max: 0.0262896 average: 0.00151645
ExecutionTime = 8.35 s  ClockTime = 8 s

forceCoeffs forceCoeffs execute:
    Coefficients
        Cd       : 0.00992598	(pressure: 0.00198195	viscous: 0.00794403)
        Cs       : -1.43871e-22	(pressure: 5.34561e-23	viscous: -1.97327e-22)
        Cl       : -0.0137378	(pressure: -0.013741	viscous: 3.13497e-06)
        CmRoll       : -0.00686892	(pressure: -0.00687049	viscous: 1.56749e-06)
        CmPitch       : 0.00493345	(pressure: 0.00484407	viscous: 8.93786e-05)
        CmYaw       : -0.00496299	(pressure: -0.000990974	viscous: -0.00397201)
        Cd(f)    : -0.00190593
        Cd(r)    : 0.0118319
        Cs(f)    : -0.00496299
        Cs(r)    : 0.00496299
        Cl(f)    : -0.00193547
        Cl(r)    : -0.0118024
runTimeControl runTimeControl2 output:
    maxDuration: conditions1
        Completed 35 out of 500
    Conditions not met

Time = 37

DILUPBiCGStab:  Solving for Ux, Initial residual = 0.00138648, Final residual = 8.93733e-06, No Iterations 3
DILUPBiCGStab:  Solving for Uy, Initial residual = 0.0128675, Final residual = 0.000100601, No Iterations 3
GAMG:  Solving for p, Initial residual = 0.0473652, Final residual = 0.00028735, No Iterations 4
GAMG:  Solving for p, Initial residual = 0.00242315, Final residual = 2.32277e-05, No Iterations 7
GAMG:  Solving for p, Initial residual = 0.000677559, Final residual = 5.72505e-06, No Iterations 5
time step continuity errors : sum local = 5.0191e-08, global = -3.58421e-09, cumulative = -8.01233e-07
DILUPBiCGStab:  Solving for omega, Initial residual = 0.428585, Final residual = 5.98028e-19, No Iterations 1
bounding omega, min: -1.1552e+33 max: 1.45996e+42 average: 3.02512e+37
DILUPBiCGStab:  Solving for k, Initial residual = 5.04968e-09, Final residual = 5.04968e-09, No Iterations 0
ExecutionTime = 8.55 s  ClockTime = 8 s

forceCoeffs forceCoeffs execute:
    Coefficients
        Cd       : 0.00958989	(pressure: 0.00198634	viscous: 0.00760354)
        Cs       : -1.49402e-22	(pressure: 5.02284e-23	viscous: -1.9963e-22)
        Cl       : -0.0119141	(pressure: -0.0119126	viscous: -1.4997e-06)
        CmRoll       : -0.00595705	(pressure: -0.0059563	viscous: -7.49852e-07)
        CmPitch       : 0.00414615	(pressure: 0.0040601	viscous: 8.60543e-05)
        CmYaw       : -0.00479494	(pressure: -0.000993171	viscous: -0.00380177)
        Cd(f)    : -0.0011621
        Cd(r)    : 0.010752
        Cs(f)    : -0.00479494
        Cs(r)    : 0.00479494
        Cl(f)    : -0.00181089
        Cl(r)    : -0.0101032
runTimeControl runTimeControl2 output:
    maxDuration: conditions1
        Completed 36 out of 500
    Conditions not met

Time = 38

DILUPBiCGStab:  Solving for Ux, Initial residual = 0.00136252, Final residual = 8.25712e-06, No Iterations 3
DILUPBiCGStab:  Solving for Uy, Initial residual = 0.0127274, Final residual = 8.83781e-05, No Iterations 3
GAMG:  Solving for p, Initial residual = 0.0447299, Final residual = 0.000269918, No Iterations 4
GAMG:  Solving for p, Initial residual = 0.00238413, Final residual = 2.34216e-05, No Iterations 7
GAMG:  Solving for p, Initial residual = 0.000652903, Final residual = 6.28429e-06, No Iterations 5
time step continuity errors : sum local = 5.38289e-08, global = -4.72633e-09, cumulative = -8.0596e-07
DILUPBiCGStab:  Solving for omega, Initial residual = 0.428585, Final residual = 9.34429e-19, No Iterations 1
bounding omega, min: -5.67719e+36 max: 5.83983e+41 average: 1.21418e+37
DILUPBiCGStab:  Solving for k, Initial residual = 6.04083e-09, Final residual = 6.04083e-09, No Iterations 0
ExecutionTime = 8.75 s  ClockTime = 8 s

forceCoeffs forceCoeffs execute:
    Coefficients
        Cd       : 0.00929646	(pressure: 0.00201787	viscous: 0.00727859)
        Cs       : -1.54083e-22	(pressure: 4.87869e-23	viscous: -2.0287e-22)
        Cl       : -0.01076	(pressure: -0.0107535	viscous: -6.49993e-06)
        CmRoll       : -0.00537998	(pressure: -0.00537673	viscous: -3.24996e-06)
        CmPitch       : 0.00359524	(pressure: 0.003513	viscous: 8.22404e-05)
        CmYaw       : -0.00464823	(pressure: -0.00100894	viscous: -0.0036393)
        Cd(f)    : -0.000731749
        Cd(r)    : 0.0100282
        Cs(f)    : -0.00464823
        Cs(r)    : 0.00464823
        Cl(f)    : -0.00178474
        Cl(r)    : -0.00897522
runTimeControl runTimeControl2 output:
    maxDuration: conditions1
        Completed 37 out of 500
    Conditions not met

Time = 39

DILUPBiCGStab:  Solving for Ux, Initial residual = 0.00132316, Final residual = 7.97561e-06, No Iterations 3
DILUPBiCGStab:  Solving for Uy, Initial residual = 0.0126664, Final residual = 0.000113603, No Iterations 3
GAMG:  Solving for p, Initial residual = 0.0414035, Final residual = 0.000261172, No Iterations 4
GAMG:  Solving for p, Initial residual = 0.00239099, Final residual = 2.24448e-05, No Iterations 7
GAMG:  Solving for p, Initial residual = 0.000642766, Final residual = 5.93224e-06, No Iterations 5
time step continuity errors : sum local = 5.04621e-08, global = -4.82945e-09, cumulative = -8.10789e-07
DILUPBiCGStab:  Solving for omega, Initial residual = 0.428585, Final residual = 7.40126e-19, No Iterations 1
bounding omega, min: -4.44623e+35 max: 2.33593e+41 average: 4.91264e+36
DILUPBiCGStab:  Solving for k, Initial residual = 0.0837382, Final residual = 1.0907e-17, No Iterations 1
bounding k, min: -7.10873e-05 max: 0.0131227 average: 0.00137468
ExecutionTime = 8.96 s  ClockTime = 9 s

forceCoeffs forceCoeffs execute:
    Coefficients
        Cd       : 0.00901769	(pressure: 0.0020453	viscous: 0.00697239)
        Cs       : -1.58929e-22	(pressure: 4.7619e-23	viscous: -2.06548e-22)
        Cl       : -0.00977801	(pressure: -0.00976647	viscous: -1.1546e-05)
        CmRoll       : -0.00488901	(pressure: -0.00488323	viscous: -5.77302e-06)
        CmPitch       : 0.0031137	(pressure: 0.00303553	viscous: 7.81716e-05)
        CmYaw       : -0.00450884	(pressure: -0.00102265	viscous: -0.00348619)
        Cd(f)    : -0.000380162
        Cd(r)    : 0.00939785
        Cs(f)    : -0.00450884
        Cs(r)    : 0.00450884
        Cl(f)    : -0.00177531
        Cl(r)    : -0.00800271
runTimeControl runTimeControl2 output:
    maxDuration: conditions1
        Completed 38 out of 500
    Conditions not met

Time = 40

DILUPBiCGStab:  Solving for Ux, Initial residual = 0.00131839, Final residual = 7.99133e-06, No Iterations 3
DILUPBiCGStab:  Solving for Uy, Initial residual = 0.012564, Final residual = 4.98033e-05, No Iterations 4
GAMG:  Solving for p, Initial residual = 0.0378834, Final residual = 0.00024003, No Iterations 4
GAMG:  Solving for p, Initial residual = 0.00233824, Final residual = 2.07352e-05, No Iterations 7
GAMG:  Solving for p, Initial residual = 0.000595316, Final residual = 5.74093e-06, No Iterations 5
time step continuity errors : sum local = 4.88155e-08, global = -4.23265e-09, cumulative = -8.15022e-07
DILUPBiCGStab:  Solving for omega, Initial residual = 0.428588, Final residual = 1.4023e-21, No Iterations 1
bounding omega, min: -3.98412e+37 max: 9.34372e+40 average: 1.96615e+36
DILUPBiCGStab:  Solving for k, Initial residual = 0.0416306, Final residual = 6.99245e-19, No Iterations 1
bounding k, min: -9.09093e-05 max: 0.00528491 average: 0.00128677
ExecutionTime = 9.17 s  ClockTime = 9 s

forceCoeffs forceCoeffs execute:
    Coefficients
        Cd       : 0.00876419	(pressure: 0.00207878	viscous: 0.00668541)
        Cs       : -1.64042e-22	(pressure: 4.70205e-23	viscous: -2.11062e-22)
        Cl       : -0.00941629	(pressure: -0.00940052	viscous: -1.57701e-05)
        CmRoll       : -0.00470814	(pressure: -0.00470026	viscous: -7.88503e-06)
        CmPitch       : 0.0028366	(pressure: 0.00276248	viscous: 7.41175e-05)
        CmYaw       : -0.00438209	(pressure: -0.00103939	viscous: -0.0033427)
        Cd(f)    : -0.000326051
        Cd(r)    : 0.00909024
        Cs(f)    : -0.00438209
        Cs(r)    : 0.00438209
        Cl(f)    : -0.00187155
        Cl(r)    : -0.00754474
runTimeControl runTimeControl2 output:
    maxDuration: conditions1
        Completed 39 out of 500
    Conditions not met

Time = 41

DILUPBiCGStab:  Solving for Ux, Initial residual = 0.00128622, Final residual = 7.70997e-06, No Iterations 3
DILUPBiCGStab:  Solving for Uy, Initial residual = 0.012469, Final residual = 4.9888e-05, No Iterations 4
GAMG:  Solving for p, Initial residual = 0.0356366, Final residual = 0.000221551, No Iterations 4
GAMG:  Solving for p, Initial residual = 0.00227134, Final residual = 1.681e-05, No Iterations 7
GAMG:  Solving for p, Initial residual = 0.000593353, Final residual = 4.47318e-06, No Iterations 5
time step continuity errors : sum local = 3.78019e-08, global = -3.47902e-09, cumulative = -8.18501e-07
DILUPBiCGStab:  Solving for omega, Initial residual = 0.428588, Final residual = 3.5296e-21, No Iterations 1
bounding omega, min: -7.88676e+34 max: 3.73749e+40 average: 7.87223e+35
DILUPBiCGStab:  Solving for k, Initial residual = 0.0170241, Final residual = 2.57602e-19, No Iterations 1
bounding k, min: -7.61065e-05 max: 0.00421395 average: 0.00121611
ExecutionTime = 9.38 s  ClockTime = 9 s

forceCoeffs forceCoeffs execute:
    Coefficients
        Cd       : 0.00848417	(pressure: 0.00206707	viscous: 0.0064171)
        Cs       : -1.68632e-22	(pressure: 4.64345e-23	viscous: -2.15066e-22)
        Cl       : -0.0088778	(pressure: -0.0088593	viscous: -1.85007e-05)
        CmRoll       : -0.0044389	(pressure: -0.00442965	viscous: -9.25036e-06)
        CmPitch       : 0.00260507	(pressure: 0.00253473	viscous: 7.03351e-05)
        CmYaw       : -0.00424209	(pressure: -0.00103354	viscous: -0.00320855)
        Cd(f)    : -0.000196814
        Cd(r)    : 0.00868099
        Cs(f)    : -0.00424209
        Cs(r)    : 0.00424209
        Cl(f)    : -0.00183383
        Cl(r)    : -0.00704397
runTimeControl runTimeControl2 output:
    maxDuration: conditions1
        Completed 40 out of 500
    Conditions not met

Time = 42

DILUPBiCGStab:  Solving for Ux, Initial residual = 0.00125313, Final residual = 7.91873e-06, No Iterations 3
DILUPBiCGStab:  Solving for Uy, Initial residual = 0.0123428, Final residual = 0.000100664, No Iterations 3
GAMG:  Solving for p, Initial residual = 0.03352, Final residual = 0.000200585, No Iterations 4
GAMG:  Solving for p, Initial residual = 0.00217304, Final residual = 1.97545e-05, No Iterations 6
GAMG:  Solving for p, Initial residual = 0.000546374, Final residual = 4.31351e-06, No Iterations 5
time step continuity errors : sum local = 3.59463e-08, global = -2.94778e-09, cumulative = -8.21449e-07
DILUPBiCGStab:  Solving for omega, Initial residual = 0.428588, Final residual = 8.27735e-21, No Iterations 1
bounding omega, min: -8.08086e+32 max: 5.46935e+47 average: 9.25628e+42
DILUPBiCGStab:  Solving for k, Initial residual = 1, Final residual = 1.17495e-16, No Iterations 1
bounding k, min: -8.83272e-05 max: 0.00411193 average: 0.00115705
ExecutionTime = 9.58 s  ClockTime = 9 s

forceCoeffs forceCoeffs execute:
    Coefficients
        Cd       : 0.00823044	(pressure: 0.00206406	viscous: 0.00616638)
        Cs       : -1.71684e-22	(pressure: 4.63895e-23	viscous: -2.18074e-22)
        Cl       : -0.00873512	(pressure: -0.00871522	viscous: -1.99039e-05)
        CmRoll       : -0.00436756	(pressure: -0.00435761	viscous: -9.95195e-06)
        CmPitch       : 0.00258864	(pressure: 0.00252179	viscous: 6.68478e-05)
        CmYaw       : -0.00411522	(pressure: -0.00103203	viscous: -0.00308319)
        Cd(f)    : -0.000252342
        Cd(r)    : 0.00848278
        Cs(f)    : -0.00411522
        Cs(r)    : 0.00411522
        Cl(f)    : -0.00177892
        Cl(r)    : -0.0069562
runTimeControl runTimeControl2 output:
    maxDuration: conditions1
        Completed 41 out of 500
    Conditions not met

Time = 43

DILUPBiCGStab:  Solving for Ux, Initial residual = 0.00124611, Final residual = 3.86022e-06, No Iterations 4
DILUPBiCGStab:  Solving for Uy, Initial residual = 0.012282, Final residual = 8.57621e-05, No Iterations 3
GAMG:  Solving for p, Initial residual = 0.0313914, Final residual = 0.000182646, No Iterations 4
GAMG:  Solving for p, Initial residual = 0.00208629, Final residual = 1.38332e-05, No Iterations 6
GAMG:  Solving for p, Initial residual = 0.000561834, Final residual = 4.29589e-06, No Iterations 4
time step continuity errors : sum local = 3.60343e-08, global = -3.01961e-09, cumulative = -8.24468e-07
DILUPBiCGStab:  Solving for omega, Initial residual = 0.428582, Final residual = 4.14081e-21, No Iterations 1
bounding omega, min: -4.4907e+34 max: 2.18774e+47 average: 3.70343e+42
[...]
        ClMean: 0.0410538, delta: 0.0599163

    Conditions not met

Time = 732

DILUPBiCGStab:  Solving for Ux, Initial residual = 0.00124417, Final residual = 1.12598e-05, No Iterations 3
DILUPBiCGStab:  Solving for Uy, Initial residual = 0.0155352, Final residual = 0.000141127, No Iterations 3
GAMG:  Solving for p, Initial residual = 0.0400057, Final residual = 0.000261273, No Iterations 6
GAMG:  Solving for p, Initial residual = 0.00606143, Final residual = 5.34816e-05, No Iterations 4
GAMG:  Solving for p, Initial residual = 0.000888914, Final residual = 7.89425e-06, No Iterations 5
time step continuity errors : sum local = 6.26122e-08, global = 1.59234e-09, cumulative = -4.11421e-07
DILUPBiCGStab:  Solving for omega, Initial residual = 2.34236e-13, Final residual = 2.34236e-13, No Iterations 0
DILUPBiCGStab:  Solving for k, Initial residual = 4.43086e-09, Final residual = 4.43086e-09, No Iterations 0
ExecutionTime = 153.51 s  ClockTime = 154 s

forceCoeffs forceCoeffs execute:
    Coefficients
        Cd       : 0.00753126	(pressure: 0.00581271	viscous: 0.00171854)
        Cs       : -2.94209e-22	(pressure: 4.34146e-22	viscous: -7.28355e-22)
        Cl       : 0.0964821	(pressure: 0.0964775	viscous: 4.51526e-06)
        CmRoll       : 0.048241	(pressure: 0.0482388	viscous: 2.25763e-06)
        CmPitch       : -0.0399321	(pressure: -0.0399326	viscous: 4.96013e-07)
        CmYaw       : -0.00376563	(pressure: -0.00290636	viscous: -0.000859271)
        Cd(f)    : 0.0520067
        Cd(r)    : -0.0444754
        Cs(f)    : -0.00376563
        Cs(r)    : 0.00376563
        Cl(f)    : 0.00830895
        Cl(r)    : 0.0881731
runTimeControl runTimeControl1 output:
    average: condition1 averages:
        ClMean: 0.0438252, delta: 0.0526568

    Conditions not met

Time = 733

DILUPBiCGStab:  Solving for Ux, Initial residual = 0.00123579, Final residual = 9.23683e-06, No Iterations 3
DILUPBiCGStab:  Solving for Uy, Initial residual = 0.0159043, Final residual = 0.000105825, No Iterations 4
GAMG:  Solving for p, Initial residual = 0.0426119, Final residual = 0.00028515, No Iterations 6
GAMG:  Solving for p, Initial residual = 0.00638765, Final residual = 5.1485e-05, No Iterations 4
GAMG:  Solving for p, Initial residual = 0.000946202, Final residual = 6.53935e-06, No Iterations 5
time step continuity errors : sum local = 4.8039e-08, global = 5.83947e-10, cumulative = -4.10837e-07
DILUPBiCGStab:  Solving for omega, Initial residual = 2.34236e-13, Final residual = 2.34236e-13, No Iterations 0
DILUPBiCGStab:  Solving for k, Initial residual = 4.43086e-09, Final residual = 4.43086e-09, No Iterations 0
ExecutionTime = 153.72 s  ClockTime = 154 s

forceCoeffs forceCoeffs execute:
    Coefficients
        Cd       : 0.00741356	(pressure: 0.0056952	viscous: 0.00171836)
        Cs       : -2.4951e-22	(pressure: 4.8588e-22	viscous: -7.3539e-22)
        Cl       : 0.0904877	(pressure: 0.0904848	viscous: 2.8502e-06)
        CmRoll       : 0.0452438	(pressure: 0.0452424	viscous: 1.4251e-06)
        CmPitch       : -0.0362142	(pressure: -0.0362165	viscous: 2.27273e-06)
        CmYaw       : -0.00370678	(pressure: -0.0028476	viscous: -0.000859181)
        Cd(f)    : 0.0489506
        Cd(r)    : -0.0415371
        Cs(f)    : -0.00370678
        Cs(r)    : 0.00370678
        Cl(f)    : 0.00902962
        Cl(r)    : 0.0814581
runTimeControl runTimeControl1 output:
    average: condition1 averages:
        ClMean: 0.0461583, delta: 0.0443294

    Conditions not met

Time = 734

DILUPBiCGStab:  Solving for Ux, Initial residual = 0.00121941, Final residual = 8.81826e-06, No Iterations 3
DILUPBiCGStab:  Solving for Uy, Initial residual = 0.0162977, Final residual = 0.00013905, No Iterations 3
GAMG:  Solving for p, Initial residual = 0.0446602, Final residual = 0.000336319, No Iterations 6
GAMG:  Solving for p, Initial residual = 0.00670726, Final residual = 5.47894e-05, No Iterations 4
GAMG:  Solving for p, Initial residual = 0.00104313, Final residual = 7.6951e-06, No Iterations 5
time step continuity errors : sum local = 5.32133e-08, global = -5.08753e-10, cumulative = -4.11346e-07
DILUPBiCGStab:  Solving for omega, Initial residual = 2.34236e-13, Final residual = 2.34236e-13, No Iterations 0
DILUPBiCGStab:  Solving for k, Initial residual = 4.43086e-09, Final residual = 4.43086e-09, No Iterations 0
ExecutionTime = 153.92 s  ClockTime = 154 s

forceCoeffs forceCoeffs execute:
    Coefficients
        Cd       : 0.00726178	(pressure: 0.00554447	viscous: 0.00171731)
        Cs       : -1.94596e-22	(pressure: 5.57461e-22	viscous: -7.52056e-22)
        Cl       : 0.08386	(pressure: 0.0838584	viscous: 1.64015e-06)
        CmRoll       : 0.04193	(pressure: 0.0419292	viscous: 8.20074e-07)
        CmPitch       : -0.032234	(pressure: -0.0322377	viscous: 3.7264e-06)
        CmYaw       : -0.00363089	(pressure: -0.00277224	viscous: -0.000858653)
        Cd(f)    : 0.0455609
        Cd(r)    : -0.0382991
        Cs(f)    : -0.00363089
        Cs(r)    : 0.00363089
        Cl(f)    : 0.00969602
        Cl(r)    : 0.074164
runTimeControl runTimeControl1 output:
    average: condition1 averages:
        ClMean: 0.0480434, delta: 0.0358166

    Conditions not met

Time = 735

DILUPBiCGStab:  Solving for Ux, Initial residual = 0.00119963, Final residual = 9.84331e-06, No Iterations 3
DILUPBiCGStab:  Solving for Uy, Initial residual = 0.0166099, Final residual = 0.000135555, No Iterations 3
GAMG:  Solving for p, Initial residual = 0.0465977, Final residual = 0.000407878, No Iterations 6
GAMG:  Solving for p, Initial residual = 0.00669047, Final residual = 6.4142e-05, No Iterations 4
GAMG:  Solving for p, Initial residual = 0.00101382, Final residual = 8.13545e-06, No Iterations 5
time step continuity errors : sum local = 5.43055e-08, global = -7.38869e-10, cumulative = -4.12085e-07
DILUPBiCGStab:  Solving for omega, Initial residual = 2.34236e-13, Final residual = 2.34236e-13, No Iterations 0
DILUPBiCGStab:  Solving for k, Initial residual = 4.43086e-09, Final residual = 4.43086e-09, No Iterations 0
ExecutionTime = 154.13 s  ClockTime = 154 s

forceCoeffs forceCoeffs execute:
    Coefficients
        Cd       : 0.00710471	(pressure: 0.00538886	viscous: 0.00171585)
        Cs       : -1.26319e-22	(pressure: 6.48863e-22	viscous: -7.75183e-22)
        Cl       : 0.0767693	(pressure: 0.0767686	viscous: 7.02528e-07)
        CmRoll       : 0.0383846	(pressure: 0.0383843	viscous: 3.51264e-07)
        CmPitch       : -0.0281336	(pressure: -0.0281385	viscous: 4.98982e-06)
        CmYaw       : -0.00355235	(pressure: -0.00269443	viscous: -0.000857923)
        Cd(f)    : 0.041937
        Cd(r)    : -0.0348323
        Cs(f)    : -0.00355235
        Cs(r)    : 0.00355235
        Cl(f)    : 0.0102511
        Cl(r)    : 0.0665182
runTimeControl runTimeControl1 output:
    average: condition1 averages:
        ClMean: 0.0494797, delta: 0.0272896

    Conditions not met

Time = 736

DILUPBiCGStab:  Solving for Ux, Initial residual = 0.00120218, Final residual = 4.90212e-06, No Iterations 4
DILUPBiCGStab:  Solving for Uy, Initial residual = 0.0168922, Final residual = 0.000135784, No Iterations 3
GAMG:  Solving for p, Initial residual = 0.0485284, Final residual = 0.000314795, No Iterations 7
GAMG:  Solving for p, Initial residual = 0.00649998, Final residual = 6.19766e-05, No Iterations 4
GAMG:  Solving for p, Initial residual = 0.00107327, Final residual = 9.58074e-06, No Iterations 5
time step continuity errors : sum local = 6.20761e-08, global = -1.3088e-09, cumulative = -4.13394e-07
DILUPBiCGStab:  Solving for omega, Initial residual = 2.34236e-13, Final residual = 2.34236e-13, No Iterations 0
DILUPBiCGStab:  Solving for k, Initial residual = 4.43086e-09, Final residual = 4.43086e-09, No Iterations 0
ExecutionTime = 154.34 s  ClockTime = 154 s

forceCoeffs forceCoeffs execute:
    Coefficients
        Cd       : 0.00693699	(pressure: 0.00522242	viscous: 0.00171457)
        Cs       : -4.79003e-23	(pressure: 7.45097e-22	viscous: -7.92997e-22)
        Cl       : 0.0694945	(pressure: 0.0694945	viscous: 1.23401e-08)
        CmRoll       : 0.0347472	(pressure: 0.0347472	viscous: 6.17005e-09)
        CmPitch       : -0.024144	(pressure: -0.0241501	viscous: 6.07412e-06)
        CmYaw       : -0.0034685	(pressure: -0.00261121	viscous: -0.000857284)
        Cd(f)    : 0.0382157
        Cd(r)    : -0.0312788
        Cs(f)    : -0.0034685
        Cs(r)    : 0.0034685
        Cl(f)    : 0.0106032
        Cl(r)    : 0.0588913
runTimeControl runTimeControl1 output:
    average: condition1 averages:
        ClMean: 0.0504805, delta: 0.019014

    Conditions not met

Time = 737

DILUPBiCGStab:  Solving for Ux, Initial residual = 0.00119755, Final residual = 7.00616e-06, No Iterations 4
DILUPBiCGStab:  Solving for Uy, Initial residual = 0.017042, Final residual = 0.000110057, No Iterations 4
GAMG:  Solving for p, Initial residual = 0.0492687, Final residual = 0.00041384, No Iterations 6
GAMG:  Solving for p, Initial residual = 0.00623283, Final residual = 5.22404e-05, No Iterations 5
GAMG:  Solving for p, Initial residual = 0.00106849, Final residual = 8.51791e-06, No Iterations 5
time step continuity errors : sum local = 5.43362e-08, global = -1.01179e-09, cumulative = -4.14405e-07
DILUPBiCGStab:  Solving for omega, Initial residual = 2.34236e-13, Final residual = 2.34236e-13, No Iterations 0
DILUPBiCGStab:  Solving for k, Initial residual = 4.43086e-09, Final residual = 4.43086e-09, No Iterations 0
ExecutionTime = 154.55 s  ClockTime = 155 s

forceCoeffs forceCoeffs execute:
    Coefficients
        Cd       : 0.00675999	(pressure: 0.00504621	viscous: 0.00171378)
        Cs       : 3.2685e-23	(pressure: 8.32389e-22	viscous: -7.99704e-22)
        Cl       : 0.0629176	(pressure: 0.062918	viscous: -3.87757e-07)
        CmRoll       : 0.0314588	(pressure: 0.031459	viscous: -1.93878e-07)
        CmPitch       : -0.0206553	(pressure: -0.0206623	viscous: 6.94417e-06)
        CmYaw       : -0.00338	(pressure: -0.0025231	viscous: -0.000856892)
        Cd(f)    : 0.0348388
        Cd(r)    : -0.0280788
        Cs(f)    : -0.00338
        Cs(r)    : 0.00338
        Cl(f)    : 0.0108035
        Cl(r)    : 0.0521141
runTimeControl runTimeControl1 output:
    average: condition1 averages:
        ClMean: 0.0511023, delta: 0.0118153

    Conditions not met

Time = 738

DILUPBiCGStab:  Solving for Ux, Initial residual = 0.00118608, Final residual = 8.00156e-06, No Iterations 4
DILUPBiCGStab:  Solving for Uy, Initial residual = 0.0170577, Final residual = 0.000138886, No Iterations 4
GAMG:  Solving for p, Initial residual = 0.0495103, Final residual = 0.000346841, No Iterations 6
GAMG:  Solving for p, Initial residual = 0.0059156, Final residual = 4.99423e-05, No Iterations 5
GAMG:  Solving for p, Initial residual = 0.000969369, Final residual = 9.24836e-06, No Iterations 5
time step continuity errors : sum local = 5.88354e-08, global = -1.86853e-10, cumulative = -4.14592e-07
DILUPBiCGStab:  Solving for omega, Initial residual = 2.34236e-13, Final residual = 2.34236e-13, No Iterations 0
DILUPBiCGStab:  Solving for k, Initial residual = 4.43086e-09, Final residual = 4.43086e-09, No Iterations 0
ExecutionTime = 154.76 s  ClockTime = 155 s

forceCoeffs forceCoeffs execute:
    Coefficients
        Cd       : 0.00660721	(pressure: 0.00489359	viscous: 0.00171362)
        Cs       : 1.06058e-22	(pressure: 8.98517e-22	viscous: -7.92459e-22)
        Cl       : 0.0576699	(pressure: 0.0576704	viscous: -5.32016e-07)
        CmRoll       : 0.0288349	(pressure: 0.0288352	viscous: -2.66008e-07)
        CmPitch       : -0.0179279	(pressure: -0.0179356	viscous: 7.626e-06)
        CmYaw       : -0.00330361	(pressure: -0.00244679	viscous: -0.000856812)
        Cd(f)    : 0.0321385
        Cd(r)    : -0.0255313
        Cs(f)    : -0.00330361
        Cs(r)    : 0.00330361
        Cl(f)    : 0.010907
        Cl(r)    : 0.0467629
runTimeControl runTimeControl1 output:
    average: condition1 averages:
        ClMean: 0.0514307, delta: 0.00623919

    Conditions not met

Time = 739

DILUPBiCGStab:  Solving for Ux, Initial residual = 0.00117329, Final residual = 9.50862e-06, No Iterations 3
DILUPBiCGStab:  Solving for Uy, Initial residual = 0.0170079, Final residual = 0.000136352, No Iterations 3
GAMG:  Solving for p, Initial residual = 0.0491012, Final residual = 0.000443949, No Iterations 5
GAMG:  Solving for p, Initial residual = 0.00564762, Final residual = 4.6943e-05, No Iterations 6
GAMG:  Solving for p, Initial residual = 0.000997298, Final residual = 9.6849e-06, No Iterations 5
time step continuity errors : sum local = 6.19037e-08, global = 6.60867e-10, cumulative = -4.13931e-07
DILUPBiCGStab:  Solving for omega, Initial residual = 2.34236e-13, Final residual = 2.34236e-13, No Iterations 0
DILUPBiCGStab:  Solving for k, Initial residual = 4.43086e-09, Final residual = 4.43086e-09, No Iterations 0
ExecutionTime = 154.97 s  ClockTime = 155 s

forceCoeffs forceCoeffs execute:
    Coefficients
        Cd       : 0.00650263	(pressure: 0.00478856	viscous: 0.00171407)
        Cs       : 1.65863e-22	(pressure: 9.37795e-22	viscous: -7.71933e-22)
        Cl       : 0.0544253	(pressure: 0.0544258	viscous: -5.26708e-07)
        CmRoll       : 0.0272127	(pressure: 0.0272129	viscous: -2.63354e-07)
        CmPitch       : -0.0162129	(pressure: -0.0162211	viscous: 8.19928e-06)
        CmYaw       : -0.00325132	(pressure: -0.00239428	viscous: -0.000857034)
        Cd(f)    : 0.030464
        Cd(r)    : -0.0239613
        Cs(f)    : -0.00325132
        Cs(r)    : 0.00325132
        Cl(f)    : 0.0109997
        Cl(r)    : 0.0434256
runTimeControl runTimeControl1 output:
    average: condition1 averages:
        ClMean: 0.0515804, delta: 0.0028449

    Conditions not met

Time = 740

DILUPBiCGStab:  Solving for Ux, Initial residual = 0.00115997, Final residual = 4.21386e-06, No Iterations 4
DILUPBiCGStab:  Solving for Uy, Initial residual = 0.0168262, Final residual = 0.000146457, No Iterations 4
GAMG:  Solving for p, Initial residual = 0.0490519, Final residual = 0.000436373, No Iterations 5
GAMG:  Solving for p, Initial residual = 0.0053434, Final residual = 4.73548e-05, No Iterations 6
GAMG:  Solving for p, Initial residual = 0.000930318, Final residual = 7.06476e-06, No Iterations 6
time step continuity errors : sum local = 4.51577e-08, global = 9.70133e-10, cumulative = -4.12961e-07
DILUPBiCGStab:  Solving for omega, Initial residual = 2.34236e-13, Final residual = 2.34236e-13, No Iterations 0
DILUPBiCGStab:  Solving for k, Initial residual = 4.43086e-09, Final residual = 4.43086e-09, No Iterations 0
ExecutionTime = 155.18 s  ClockTime = 155 s

forceCoeffs forceCoeffs execute:
    Coefficients
        Cd       : 0.00643674	(pressure: 0.0047217	viscous: 0.00171504)
        Cs       : 2.13722e-22	(pressure: 9.51882e-22	viscous: -7.3816e-22)
        Cl       : 0.0525556	(pressure: 0.0525559	viscous: -3.40321e-07)
        CmRoll       : 0.0262778	(pressure: 0.026278	viscous: -1.7016e-07)
        CmPitch       : -0.0152757	(pressure: -0.0152843	viscous: 8.64507e-06)
        CmYaw       : -0.00321837	(pressure: -0.00236085	viscous: -0.000857521)
        Cd(f)    : 0.0294962
        Cd(r)    : -0.0230594
        Cs(f)    : -0.00321837
        Cs(r)    : 0.00321837
        Cl(f)    : 0.0110021
        Cl(r)    : 0.0415535
runTimeControl runTimeControl1 output:
    average: condition1 averages:
        ClMean: 0.0516292, delta: 0.000926394

    Conditions not met

Time = 741

DILUPBiCGStab:  Solving for Ux, Initial residual = 0.00114499, Final residual = 4.63923e-06, No Iterations 4
DILUPBiCGStab:  Solving for Uy, Initial residual = 0.0165568, Final residual = 0.000110007, No Iterations 4
GAMG:  Solving for p, Initial residual = 0.0487568, Final residual = 0.000343358, No Iterations 6
GAMG:  Solving for p, Initial residual = 0.00541907, Final residual = 4.175e-05, No Iterations 6
GAMG:  Solving for p, Initial residual = 0.000854279, Final residual = 6.29524e-06, No Iterations 6
time step continuity errors : sum local = 3.97789e-08, global = 9.59641e-10, cumulative = -4.12002e-07
DILUPBiCGStab:  Solving for omega, Initial residual = 2.34236e-13, Final residual = 2.34236e-13, No Iterations 0
DILUPBiCGStab:  Solving for k, Initial residual = 4.43086e-09, Final residual = 4.43086e-09, No Iterations 0
ExecutionTime = 155.4 s  ClockTime = 156 s

forceCoeffs forceCoeffs execute:
    Coefficients
        Cd       : 0.0063887	(pressure: 0.0046724	viscous: 0.0017163)
        Cs       : 2.47824e-22	(pressure: 9.49262e-22	viscous: -7.01437e-22)
        Cl       : 0.0518521	(pressure: 0.0518521	viscous: 6.51566e-08)
        CmRoll       : 0.0259261	(pressure: 0.025926	viscous: 3.25783e-08)
        CmPitch       : -0.0148384	(pressure: -0.0148474	viscous: 8.93757e-06)
        CmYaw       : -0.00319435	(pressure: -0.0023362	viscous: -0.000858152)
        Cd(f)    : 0.0291204
        Cd(r)    : -0.0227317
        Cs(f)    : -0.00319435
        Cs(r)    : 0.00319435
        Cl(f)    : 0.0110876
        Cl(r)    : 0.0407645
runTimeControl runTimeControl1 output:
    average: condition1 averages:
        ClMean: 0.0516403, delta: 0.000211801

    Conditions not met

Time = 742

DILUPBiCGStab:  Solving for Ux, Initial residual = 0.0011242, Final residual = 4.70917e-06, No Iterations 4
DILUPBiCGStab:  Solving for Uy, Initial residual = 0.0162249, Final residual = 0.000126688, No Iterations 4
GAMG:  Solving for p, Initial residual = 0.0482141, Final residual = 0.000389195, No Iterations 6
GAMG:  Solving for p, Initial residual = 0.00534435, Final residual = 4.88567e-05, No Iterations 6
GAMG:  Solving for p, Initial residual = 0.000844534, Final residual = 7.20751e-06, No Iterations 6
time step continuity errors : sum local = 4.46964e-08, global = 8.28774e-10, cumulative = -4.11173e-07
DILUPBiCGStab:  Solving for omega, Initial residual = 2.34236e-13, Final residual = 2.34236e-13, No Iterations 0
DILUPBiCGStab:  Solving for k, Initial residual = 4.43086e-09, Final residual = 4.43086e-09, No Iterations 0
ExecutionTime = 155.62 s  ClockTime = 156 s

forceCoeffs forceCoeffs execute:
    Coefficients
        Cd       : 0.00635002	(pressure: 0.00463246	viscous: 0.00171756)
        Cs       : 2.69262e-22	(pressure: 9.33297e-22	viscous: -6.64035e-22)
        Cl       : 0.051635	(pressure: 0.0516344	viscous: 6.2618e-07)
        CmRoll       : 0.0258175	(pressure: 0.0258172	viscous: 3.1309e-07)
        CmPitch       : -0.0145883	(pressure: -0.0145974	viscous: 9.11929e-06)
        CmYaw       : -0.00317501	(pressure: -0.00231623	viscous: -0.000858779)
        Cd(f)    : 0.0289925
        Cd(r)    : -0.0226425
        Cs(f)    : -0.00317501
        Cs(r)    : 0.00317501
        Cl(f)    : 0.0112292
        Cl(r)    : 0.0404058
runTimeControl runTimeControl1 output:
    average: condition1 averages:
        ClMean: 0.0516401, delta: 5.04673e-06

    average: condition1 condition satisfied
    Stopping calculation
    Writing fields

forceCoeffs forceCoeffs execute:
    Coefficients
        Cd       : 0.00635002	(pressure: 0.00463246	viscous: 0.00171756)
        Cs       : 2.69262e-22	(pressure: 9.33297e-22	viscous: -6.64035e-22)
        Cl       : 0.051635	(pressure: 0.0516344	viscous: 6.2618e-07)
        CmRoll       : 0.0258175	(pressure: 0.0258172	viscous: 3.1309e-07)
        CmPitch       : -0.0145883	(pressure: -0.0145974	viscous: 9.11929e-06)
        CmYaw       : -0.00317501	(pressure: -0.00231623	viscous: -0.000858779)
        Cd(f)    : 0.0289925
        Cd(r)    : -0.0226425
        Cs(f)    : -0.00317501
        Cs(r)    : 0.00317501
        Cl(f)    : 0.0112292
        Cl(r)    : 0.0404058
yPlus yPlus write:
    writing field yPlus
    patch airfoil y+ : min = 0.000223885, max = 0.0208452, average = 0.0049962

yPlus yPlus write:
    writing field yPlus
    patch airfoil y+ : min = 0.000223885, max = 0.0208452, average = 0.0049962
End

